<?xml version="1.0" encoding="UTF-8"?>

<!-- generated on Thu Mar 14 11:12:44 2019 by Eclipse SUMO netconvert Version 1.1.0
<configuration xmlns:xsi="http://www.w3.org/2001/XMLSchema-instance" xsi:noNamespaceSchemaLocation="http://sumo.dlr.de/xsd/netconvertConfiguration.xsd">

    <input>
        <sumo-net-file value="scenario.net.xml"/>
    </input>

    <output>
        <output-file value="correct.net.xml"/>
    </output>

    <processing>
        <geometry.max-grade.fix value="false"/>
        <offset.disable-normalization value="true"/>
        <lefthand value="true"/>
    </processing>

    <junctions>
        <no-turnarounds value="true"/>
        <junctions.corner-detail value="5"/>
        <junctions.limit-turn-speed value="5.5"/>
        <rectangular-lane-cut value="false"/>
    </junctions>

    <pedestrian>
        <walkingareas value="false"/>
    </pedestrian>

</configuration>
-->

<net version="1.1" junctionCornerDetail="5" lefthand="true" limitTurnSpeed="5.50" xmlns:xsi="http://www.w3.org/2001/XMLSchema-instance" xsi:noNamespaceSchemaLocation="http://sumo.dlr.de/xsd/net_file.xsd">

    <location netOffset="0.00,0.00" convBoundary="-100.00,-50.00,100.00,0.00" origBoundary="-10000000000.00,-10000000000.00,10000000000.00,10000000000.00" projParameter="!"/>

    <edge id=":C_0" function="internal">
        <lane id=":C_0_0" index="0" disallow="pedestrian" speed="6.74" length="9.77" width="5.00" shape="-1.60,-9.00 -1.95,-6.16 -3.00,-4.12 -4.75,-2.91 -7.20,-2.50"/>
    </edge>
    <edge id=":C_1" function="internal">
        <lane id=":C_1_0" index="0" disallow="pedestrian" speed="8.57" length="16.43" width="5.00" shape="-1.60,-9.00 -1.05,-3.97 0.60,-0.37 3.35,1.78 7.20,2.50"/>
    </edge>
    <edge id=":C_2" function="internal">
        <lane id=":C_2_0" index="0" disallow="pedestrian" speed="6.92" length="5.60" width="3.20" shape="7.20,-2.50 4.75,-2.91 3.00,-4.12 2.55,-5.00"/>
    </edge>
    <edge id=":C_3" function="internal">
        <lane id=":C_3_0" index="0" disallow="pedestrian" speed="13.89" length="14.40" width="5.00" shape="7.20,-2.50 -7.20,-2.50"/>
    </edge>
    <edge id=":C_6" function="internal">
        <lane id=":C_6_0" index="0" disallow="pedestrian" speed="6.92" length="4.17" width="3.20" shape="2.55,-5.00 1.95,-6.16 1.60,-9.00"/>
    </edge>
    <edge id=":C_4" function="internal">
        <lane id=":C_4_0" index="0" disallow="pedestrian" speed="13.89" length="14.40" width="5.00" shape="-7.20,2.50 7.20,2.50"/>
    </edge>
    <edge id=":C_5" function="internal">
        <lane id=":C_5_0" index="0" disallow="pedestrian" speed="8.71" length="6.80" width="3.20" shape="-7.20,2.50 -3.35,1.78 -1.08,-0.00"/>
    </edge>
    <edge id=":C_7" function="internal">
        <lane id=":C_7_0" index="0" disallow="pedestrian" speed="8.71" length="9.62" width="3.20" shape="-1.08,-0.00 -0.60,-0.38 1.05,-3.97 1.60,-9.00"/>
    </edge>
    <edge id=":C_c0" function="crossing" crossingEdges="CS SC">
        <lane id=":C_c0_0" index="0" allow="pedestrian" speed="1.00" length="6.40" width="4.00" shape="3.20,-7.00 -3.20,-7.00"/>
    </edge>
    <edge id=":C_c1" function="crossing" crossingEdges="CE EC">
        <lane id=":C_c1_0" index="0" allow="pedestrian" speed="1.00" length="10.00" width="4.00" shape="5.20,5.00 5.20,-5.00"/>
    </edge>
    <edge id=":C_c2" function="crossing" crossingEdges="CW WC">
        <lane id=":C_c2_0" index="0" allow="pedestrian" speed="1.00" length="10.00" width="4.00" shape="-5.20,-5.00 -5.20,5.00"/>
    </edge>
    <edge id=":C_w0" function="walkingarea">
        <lane id=":C_w0_0" index="0" allow="pedestrian" speed="1.00" length="3.30" width="4.00" shape="-7.20,-5.00 -7.20,-7.00 -5.20,-9.00 -3.20,-9.00 -3.31,-7.78 -3.64,-6.78 -4.20,-6.00 -4.98,-5.44 -5.98,-5.11"/>
    </edge>
    <edge id=":C_w1" function="walkingarea">
        <lane id=":C_w1_0" index="0" allow="pedestrian" speed="1.00" length="3.30" width="4.00" shape="3.20,-9.00 5.20,-9.00 7.20,-7.00 7.20,-5.00 5.98,-5.11 4.98,-5.44 4.20,-6.00 3.64,-6.78 3.31,-7.78"/>
    </edge>
    <edge id=":C_w2" function="walkingarea">
        <lane id=":C_w2_0" index="0" allow="pedestrian" speed="1.00" length="9.03" width="4.00" shape="3.20,5.00 7.20,5.00 7.20,7.00 -7.20,7.00 -7.20,5.00 -3.20,5.00"/>
    </edge>
    <edge id=":E_w0" function="walkingarea">
        <lane id=":E_w0_0" index="0" allow="pedestrian" speed="1.00" length="12.00" width="2.00" shape="100.00,-5.00 100.00,-7.00 100.00,7.00 100.00,5.00"/>
    </edge>
    <edge id=":S_w0" function="walkingarea">
        <lane id=":S_w0_0" index="0" allow="pedestrian" speed="1.00" length="8.40" width="2.00" shape="-3.20,-50.00 -5.20,-50.00 5.20,-50.00 3.20,-50.00"/>
    </edge>
    <edge id=":W_w0" function="walkingarea">
        <lane id=":W_w0_0" index="0" allow="pedestrian" speed="1.00" length="12.00" width="2.00" shape="-100.00,5.00 -100.00,7.00 -100.00,-7.00 -100.00,-5.00"/>
    </edge>

    <edge id="CE" from="C" to="E" priority="2">
        <lane id="CE_0" index="0" allow="pedestrian" speed="13.89" length="92.80" width="2.00" shape="7.20,6.00 100.00,6.00"/>
        <lane id="CE_1" index="1" disallow="pedestrian" speed="13.89" length="92.80" width="5.00" shape="7.20,2.50 100.00,2.50"/>
    </edge>
    <edge id="CS" from="C" to="S" priority="0">
        <lane id="CS_0" index="0" allow="pedestrian" speed="13.89" length="41.00" width="2.00" shape="4.20,-9.00 4.20,-50.00"/>
        <lane id="CS_1" index="1" disallow="pedestrian" speed="13.89" length="41.00" width="3.20" shape="1.60,-9.00 1.60,-50.00"/>
    </edge>
    <edge id="CW" from="C" to="W" priority="2">
        <lane id="CW_0" index="0" allow="pedestrian" speed="13.89" length="92.80" width="2.00" shape="-7.20,-6.00 -100.00,-6.00"/>
        <lane id="CW_1" index="1" disallow="pedestrian" speed="13.89" length="92.80" width="5.00" shape="-7.20,-2.50 -100.00,-2.50"/>
    </edge>
    <edge id="EC" from="E" to="C" priority="2">
        <lane id="EC_0" index="0" allow="pedestrian" speed="13.89" length="92.80" width="2.00" shape="100.00,-6.00 7.20,-6.00"/>
        <lane id="EC_1" index="1" disallow="pedestrian" speed="13.89" length="92.80" width="5.00" shape="100.00,-2.50 7.20,-2.50"/>
    </edge>
    <edge id="SC" from="S" to="C" priority="0">
        <lane id="SC_0" index="0" allow="pedestrian" speed="13.89" length="41.00" width="2.00" shape="-4.20,-50.00 -4.20,-9.00"/>
        <lane id="SC_1" index="1" disallow="pedestrian" speed="13.89" length="41.00" width="3.20" shape="-1.60,-50.00 -1.60,-9.00"/>
    </edge>
    <edge id="WC" from="W" to="C" priority="2">
        <lane id="WC_0" index="0" allow="pedestrian" speed="13.89" length="92.80" width="2.00" shape="-100.00,6.00 -7.20,6.00"/>
        <lane id="WC_1" index="1" disallow="pedestrian" speed="13.89" length="92.80" width="5.00" shape="-100.00,2.50 -7.20,2.50"/>
    </edge>

    <junction id="C" type="priority_stop" x="0.00" y="0.00" incLanes="SC_0 SC_1 EC_0 EC_1 WC_0 WC_1 :C_w1_0 :C_w2_0 :C_w0_0" intLanes=":C_0_0 :C_1_0 :C_6_0 :C_3_0 :C_4_0 :C_7_0 :C_c0_0 :C_c1_0 :C_c2_0" shape="-5.20,-9.00 5.20,-9.00 5.42,-7.89 5.70,-7.50 6.09,-7.22 6.59,-7.06 7.20,-7.00 7.20,7.00 -7.20,7.00 -7.20,-7.00 -6.09,-7.22 -5.70,-7.50 -5.42,-7.89 -5.26,-8.39">
        <request index="0" response="101001000" foes="101001000" cont="0"/>
        <request index="1" response="011111000" foes="011111000" cont="0"/>
        <request index="2" response="001000000" foes="011100000" cont="1"/>
        <request index="3" response="000000000" foes="110100011" cont="0"/>
        <request index="4" response="000000000" foes="110000010" cont="0"/>
        <request index="5" response="001001100" foes="101001110" cont="1"/>
        <request index="6" response="000000000" foes="000100111" cont="0"/>
        <request index="7" response="000011100" foes="000011110" cont="0"/>
        <request index="8" response="000111000" foes="000111001" cont="0"/>
    </junction>
    <junction id="E" type="dead_end" x="100.00" y="0.00" incLanes="CE_0 CE_1" intLanes="" shape="100.00,-0.00 100.00,7.00 100.00,-0.00"/>
    <junction id="S" type="dead_end" x="0.00" y="-50.00" incLanes="CS_0 CS_1" intLanes="" shape="0.00,-50.00 5.00,-50.00 0.00,-50.00" customShape="1"/>
    <junction id="W" type="dead_end" x="-100.00" y="0.00" incLanes="CW_0 CW_1" intLanes="" shape="-100.00,-0.00 -100.00,-7.00 -100.00,-0.00"/>

    <junction id=":C_6_0" type="internal" x="2.55" y="-5.00" incLanes=":C_2_0" intLanes=":C_5_0 :C_c0_0 :C_c1_0"/>
    <junction id=":C_7_0" type="internal" x="-1.08" y="-0.00" incLanes=":C_5_0 EC_1" intLanes=":C_1_0 :C_2_0 :C_3_0 :C_c0_0 :C_c2_0"/>

    <connection from="EC" to="CS" fromLane="1" toLane="1" via=":C_2_0" dir="l" state="s"/>
    <connection from="EC" to="CW" fromLane="1" toLane="1" via=":C_3_0" dir="s" state="M"/>
    <connection from="SC" to="CW" fromLane="1" toLane="1" via=":C_0_0" dir="l" state="s"/>
    <connection from="SC" to="CE" fromLane="1" toLane="1" via=":C_1_0" dir="r" state="s"/>
    <connection from="WC" to="CE" fromLane="1" toLane="1" via=":C_4_0" dir="s" state="M"/>
    <connection from="WC" to="CS" fromLane="1" toLane="1" via=":C_5_0" dir="r" state="s"/>

    <connection from=":C_0" to="CW" fromLane="0" toLane="1" dir="l" state="M"/>
    <connection from=":C_1" to="CE" fromLane="0" toLane="1" dir="r" state="M"/>
    <connection from=":C_2" to="CS" fromLane="0" toLane="1" via=":C_6_0" dir="l" state="m"/>
    <connection from=":C_6" to="CS" fromLane="0" toLane="1" dir="l" state="M"/>
    <connection from=":C_3" to="CW" fromLane="0" toLane="1" dir="s" state="M"/>
    <connection from=":C_4" to="CE" fromLane="0" toLane="1" dir="s" state="M"/>
    <connection from=":C_5" to="CS" fromLane="0" toLane="1" via=":C_7_0" dir="r" state="m"/>
    <connection from=":C_7" to="CS" fromLane="0" toLane="1" dir="r" state="M"/>

    <connection from=":C_c0" to=":C_w0" fromLane="0" toLane="0" dir="s" state="M"/>
    <connection from=":C_c1" to=":C_w1" fromLane="0" toLane="0" dir="s" state="M"/>
    <connection from=":C_c2" to=":C_w2" fromLane="0" toLane="0" dir="s" state="M"/>
    <connection from=":C_w0" to=":C_c2" fromLane="0" toLane="0" dir="s" state="m"/>
    <connection from=":C_w0" to="CW" fromLane="0" toLane="0" dir="s" state="M"/>
    <connection from="SC" to=":C_w0" fromLane="0" toLane="0" dir="s" state="M"/>
    <connection from=":C_w1" to=":C_c0" fromLane="0" toLane="0" dir="s" state="M"/>
    <connection from=":C_w1" to="CS" fromLane="0" toLane="0" dir="s" state="M"/>
    <connection from="EC" to=":C_w1" fromLane="0" toLane="0" dir="s" state="M"/>
    <connection from=":C_w2" to=":C_c1" fromLane="0" toLane="0" dir="s" state="m"/>
    <connection from=":C_w2" to="CE" fromLane="0" toLane="0" dir="s" state="M"/>
    <connection from="WC" to=":C_w2" fromLane="0" toLane="0" dir="s" state="M"/>
    <connection from=":E_w0" to="EC" fromLane="0" toLane="0" dir="s" state="M"/>
    <connection from="CE" to=":E_w0" fromLane="0" toLane="0" dir="s" state="M"/>
    <connection from=":S_w0" to="SC" fromLane="0" toLane="0" dir="s" state="M"/>
    <connection from="CS" to=":S_w0" fromLane="0" toLane="0" dir="s" state="M"/>
    <connection from=":W_w0" to="WC" fromLane="0" toLane="0" dir="s" state="M"/>
    <connection from="CW" to=":W_w0" fromLane="0" toLane="0" dir="s" state="M"/>
</net>
