<?xml version="1.0" encoding="UTF-8"?>

<!-- generated on Tue 12 Mar 2019 03:27:48 PM PDT by Eclipse SUMO netedit Version 1.1.0
<configuration xmlns:xsi="http://www.w3.org/2001/XMLSchema-instance" xsi:noNamespaceSchemaLocation="http://sumo.dlr.de/xsd/netconvertConfiguration.xsd">

    <input>
        <sumo-net-file value="scenario.net.xml"/>
    </input>

    <output>
        <output-file value="scenario.net.xml"/>
    </output>

    <processing>
        <geometry.max-grade.fix value="false"/>
        <offset.disable-normalization value="true"/>
        <lefthand value="true"/>
    </processing>

    <junctions>
        <no-internal-links value="false"/>
        <no-turnarounds value="true"/>
        <junctions.corner-detail value="5"/>
        <junctions.limit-turn-speed value="5.5"/>
        <rectangular-lane-cut value="false"/>
    </junctions>

    <pedestrian>
        <walkingareas value="false"/>
    </pedestrian>

</configuration>
-->

<net version="1.1" junctionCornerDetail="5" lefthand="true" limitTurnSpeed="5.50" xmlns:xsi="http://www.w3.org/2001/XMLSchema-instance" xsi:noNamespaceSchemaLocation="http://sumo.dlr.de/xsd/net_file.xsd">

    <location netOffset="0.00,0.00" convBoundary="0.00,-20.00,100.00,20.00" origBoundary="-10000000000.00,-10000000000.00,10000000000.00,10000000000.00" projParameter="!"/>

    <edge id=":C_0" function="internal">
        <lane id=":C_0_0" index="0" disallow="pedestrian" speed="13.89" length="6.00" width="5.00" shape="54.50,-2.50 48.50,-2.50"/>
    </edge>
    <edge id=":C_1" function="internal">
        <lane id=":C_1_0" index="0" disallow="pedestrian" speed="13.89" length="6.00" width="5.00" shape="48.50,2.50 54.50,2.50"/>
    </edge>
    <edge id=":C_c0" function="crossing" crossingEdges="EC CE">
        <lane id=":C_c0_0" index="0" allow="pedestrian" speed="1.00" length="10.00" width="6.00" shape="51.50,-5.00 51.50,5.00"/>
    </edge>
    <edge id=":C_w0" function="walkingarea">
        <lane id=":C_w0_0" index="0" allow="pedestrian" speed="1.00" length="1.50" width="6.00" shape="48.50,-5.00 54.50,-5.00 53.00,-6.50 50.00,-6.50"/>
    </edge>
    <edge id=":C_w1" function="walkingarea">
        <lane id=":C_w1_0" index="0" allow="pedestrian" speed="1.00" length="1.50" width="6.00" shape="50.00,6.50 53.00,6.50 54.50,5.00 48.50,5.00"/>
    </edge>

    <edge id="CE" from="C" to="E" priority="1">
        <lane id="CE_0" index="0" disallow="pedestrian" speed="13.89" length="45.50" width="5.00" shape="54.50,2.50 100.00,2.50"/>
    </edge>
    <edge id="CS" from="C" to="S" priority="2">
        <lane id="CS_0" index="0" allow="pedestrian" speed="13.89" length="13.50" width="3.00" shape="51.50,-6.50 51.50,-20.00"/>
    </edge>
    <edge id="CW" from="C" to="W" priority="1">
        <lane id="CW_0" index="0" disallow="pedestrian" speed="13.89" length="48.50" width="5.00" shape="48.50,-2.50 0.00,-2.50"/>
    </edge>
    <edge id="EC" from="E" to="C" priority="1">
        <lane id="EC_0" index="0" disallow="pedestrian" speed="13.89" length="45.50" width="5.00" shape="100.00,-2.50 54.50,-2.50"/>
    </edge>
    <edge id="NC" from="N" to="C" priority="2">
        <lane id="NC_0" index="0" allow="pedestrian" speed="13.89" length="13.50" width="3.00" shape="51.50,20.00 51.50,6.50"/>
    </edge>
    <edge id="WC" from="W" to="C" priority="1">
        <lane id="WC_0" index="0" disallow="pedestrian" speed="13.89" length="48.50" width="5.00" shape="0.00,2.50 48.50,2.50"/>
    </edge>

    <junction id="C" type="priority" x="50.00" y="0.00" incLanes="EC_0 NC_0 WC_0 :C_w0_0" intLanes=":C_0_0 :C_1_0 :C_c0_0" shape="50.00,-6.50 53.00,-6.50 53.17,-5.67 53.38,-5.38 53.67,-5.17 54.04,-5.04 54.50,-5.00 54.50,5.00 53.67,5.17 53.38,5.38 53.17,5.67 53.04,6.04 53.00,6.50 50.00,6.50 49.83,5.67 49.62,5.38 49.33,5.17 48.96,5.04 48.50,5.00 48.50,-5.00 49.33,-5.17 49.62,-5.38 49.83,-5.67 49.96,-6.04">
        <request index="0" response="100" foes="100" cont="0"/>
        <request index="1" response="100" foes="100" cont="0"/>
        <request index="2" response="000" foes="011" cont="0"/>
    </junction>
    <junction id="E" type="dead_end" x="100.00" y="0.00" incLanes="CE_0" intLanes="" shape="100.00,-0.00 100.00,5.00 100.00,-0.00"/>
    <junction id="N" type="dead_end" x="50.00" y="20.00" incLanes="" intLanes="" shape="50.00,20.00 53.00,20.00" radius="2.00"/>
    <junction id="S" type="dead_end" x="50.00" y="-20.00" incLanes="CS_0" intLanes="" shape="53.00,-20.00 50.00,-20.00"/>
    <junction id="W" type="dead_end" x="0.00" y="0.00" incLanes="CW_0" intLanes="" shape="0.00,-0.00 0.00,-5.00 0.00,-0.00"/>

    <connection from="EC" to="CW" fromLane="0" toLane="0" via=":C_0_0" dir="s" state="m"/>
    <connection from="WC" to="CE" fromLane="0" toLane="0" via=":C_1_0" dir="s" state="m"/>

    <connection from=":C_0" to="CW" fromLane="0" toLane="0" dir="s" state="M"/>
    <connection from=":C_1" to="CE" fromLane="0" toLane="0" dir="s" state="M"/>

    <connection from=":C_c0" to=":C_w1" fromLane="0" toLane="0" dir="s" state="M"/>
    <connection from=":C_w0" to=":C_c0" fromLane="0" toLane="0" dir="s" state="M"/>
    <connection from=":C_w0" to="CS" fromLane="0" toLane="0" dir="s" state="M"/>
    <connection from="NC" to=":C_w1" fromLane="0" toLane="0" dir="s" state="M"/>
</net>
