<?xml version="1.0" encoding="UTF-8"?>
<routes >
  <!-- passenger vehicle flow -->
  <vType id="slow" length="5" maxSpeed="8.33" accel="2.6" decel="4.5" speedDev="0.2" sigma="0.2" vClass="passenger"/>
  <flow id="slow" type="slow" begin="0" end="1000" probability="0.1" from="EC" to="CW" departSpeed="8" />
  <flow id="slow_R" type="slow" begin="0" end="1000" probability="0.05" from="WC" to="CE" departSpeed="8" />

  <vType id="medium" length="5" maxSpeed="11.1" accel="2.6" decel="4.5" speedDev="0.2" sigma="0.2" vClass="passenger"/>
  <flow id="medium" type="medium" begin="0" end="1000" probability="0.1" from="EC" to="CW" departSpeed="8" />
  <flow id="medium_R" type="medium" begin="0" end="1000" probability="0.05" from="WC" to="CE" departSpeed="8" />

  <vType id="fast" length="5" maxSpeed="13.5" accel="2.6" decel="4.5" speedDev="0.2" sigma="0.2" vClass="passenger"/>
  <flow id="fast" type="fast" begin="0" end="1000" probability="0.1" from="EC" to="CW" departSpeed="8" />
  <flow id="fast_R" type="fast" begin="0" end="1000" probability="0.05" from="WC" to="CE" departSpeed="8" />

  <!-- defing ego car -->
  <vType accel="3.0" decel="6.0" id="CarA" length="5.0" minGap="2.5" maxSpeed="13.9" sigma="0.5" />
  <route id="route01" edges="WC CE"/>
  <vehicle depart="000" id="veh0" route="route01" type="CarA" color="1,1,1" /> 

  <!-- persons flow -->
    <vType id="p0" vClass="pedestrian" width="0.7" length="0.5" minGap="0.2" maxSpeed="1.2" guiShape="pedestrian"/>
    <person id="p0" type="p0" depart="12" departPos="0">
        <walk from="NC" to="CS" arrivalPos="-1"/>
    </person>
    <vType id="p1" vClass="pedestrian" width="0.7" length="0.5" minGap="0.2" maxSpeed="1.2" guiShape="pedestrian"/>
    <person id="p1" type="p1" depart="13" departPos="0">
        <walk from="CS" to="NC" arrivalPos="-1"/>
    </person>
    <vType id="p2" vClass="pedestrian" width="0.7" length="0.5" minGap="0.2" maxSpeed="1.2" guiShape="pedestrian"/>
    <person id="p2" type="p2" depart="16" departPos="0">
        <walk from="NC" to="CS" arrivalPos="-1"/>
    </person>
    <vType id="p3" vClass="pedestrian" width="0.7" length="0.5" minGap="0.2" maxSpeed="1.2" guiShape="pedestrian"/>
    <person id="p3" type="p3" depart="18" departPos="0">
        <walk from="CS" to="NC" arrivalPos="-1"/>
    </person>
    <vType id="p4" vClass="pedestrian" width="0.7" length="0.5" minGap="0.2" maxSpeed="1.2" guiShape="pedestrian"/>
    <person id="p4" type="p4" depart="28" departPos="0">
        <walk from="NC" to="CS" arrivalPos="-1"/>
    </person>
    <vType id="p5" vClass="pedestrian" width="0.7" length="0.5" minGap="0.2" maxSpeed="1.2" guiShape="pedestrian"/>
    <person id="p5" type="p5" depart="39" departPos="0">
        <walk from="CS" to="NC" arrivalPos="-1"/>
    </person>
    <vType id="p6" vClass="pedestrian" width="0.7" length="0.5" minGap="0.2" maxSpeed="1.2" guiShape="pedestrian"/>
    <person id="p6" type="p6" depart="42" departPos="0">
        <walk from="NC" to="CS" arrivalPos="-1"/>
    </person>
    <vType id="p7" vClass="pedestrian" width="0.7" length="0.5" minGap="0.2" maxSpeed="1.2" guiShape="pedestrian"/>
    <person id="p7" type="p7" depart="49" departPos="0">
        <walk from="CS" to="NC" arrivalPos="-1"/>
    </person>
    <vType id="p8" vClass="pedestrian" width="0.7" length="0.5" minGap="0.2" maxSpeed="1.2" guiShape="pedestrian"/>
    <person id="p8" type="p8" depart="51" departPos="0">
        <walk from="NC" to="CS" arrivalPos="-1"/>
    </person>
    <vType id="p9" vClass="pedestrian" width="0.7" length="0.5" minGap="0.2" maxSpeed="1.2" guiShape="pedestrian"/>
    <person id="p9" type="p9" depart="56" departPos="0">
        <walk from="CS" to="NC" arrivalPos="-1"/>
    </person>
    <vType id="p10" vClass="pedestrian" width="0.7" length="0.5" minGap="0.2" maxSpeed="1.2" guiShape="pedestrian"/>
    <person id="p10" type="p10" depart="63" departPos="0">
        <walk from="NC" to="CS" arrivalPos="-1"/>
    </person>
    <vType id="p11" vClass="pedestrian" width="0.7" length="0.5" minGap="0.2" maxSpeed="1.2" guiShape="pedestrian"/>
    <person id="p11" type="p11" depart="91" departPos="0">
        <walk from="CS" to="NC" arrivalPos="-1"/>
    </person>
    <vType id="p12" vClass="pedestrian" width="0.7" length="0.5" minGap="0.2" maxSpeed="1.2" guiShape="pedestrian"/>
    <person id="p12" type="p12" depart="96" departPos="0">
        <walk from="NC" to="CS" arrivalPos="-1"/>
    </person>
    <vType id="p13" vClass="pedestrian" width="0.7" length="0.5" minGap="0.2" maxSpeed="1.2" guiShape="pedestrian"/>
    <person id="p13" type="p13" depart="101" departPos="0">
        <walk from="CS" to="NC" arrivalPos="-1"/>
    </person>
    <vType id="p14" vClass="pedestrian" width="0.7" length="0.5" minGap="0.2" maxSpeed="1.2" guiShape="pedestrian"/>
    <person id="p14" type="p14" depart="104" departPos="0">
        <walk from="NC" to="CS" arrivalPos="-1"/>
    </person>
    <vType id="p15" vClass="pedestrian" width="0.7" length="0.5" minGap="0.2" maxSpeed="1.2" guiShape="pedestrian"/>
    <person id="p15" type="p15" depart="110" departPos="0">
        <walk from="CS" to="NC" arrivalPos="-1"/>
    </person>
    <vType id="p16" vClass="pedestrian" width="0.7" length="0.5" minGap="0.2" maxSpeed="1.2" guiShape="pedestrian"/>
    <person id="p16" type="p16" depart="116" departPos="0">
        <walk from="NC" to="CS" arrivalPos="-1"/>
    </person>
    <vType id="p17" vClass="pedestrian" width="0.7" length="0.5" minGap="0.2" maxSpeed="1.2" guiShape="pedestrian"/>
    <person id="p17" type="p17" depart="117" departPos="0">
        <walk from="CS" to="NC" arrivalPos="-1"/>
    </person>
    <vType id="p18" vClass="pedestrian" width="0.7" length="0.5" minGap="0.2" maxSpeed="1.2" guiShape="pedestrian"/>
    <person id="p18" type="p18" depart="118" departPos="0">
        <walk from="NC" to="CS" arrivalPos="-1"/>
    </person>
    <vType id="p19" vClass="pedestrian" width="0.7" length="0.5" minGap="0.2" maxSpeed="1.2" guiShape="pedestrian"/>
    <person id="p19" type="p19" depart="119" departPos="0">
        <walk from="CS" to="NC" arrivalPos="-1"/>
    </person>
    <vType id="p20" vClass="pedestrian" width="0.7" length="0.5" minGap="0.2" maxSpeed="1.2" guiShape="pedestrian"/>
    <person id="p20" type="p20" depart="126" departPos="0">
        <walk from="NC" to="CS" arrivalPos="-1"/>
    </person>
    <vType id="p21" vClass="pedestrian" width="0.7" length="0.5" minGap="0.2" maxSpeed="1.2" guiShape="pedestrian"/>
    <person id="p21" type="p21" depart="135" departPos="0">
        <walk from="CS" to="NC" arrivalPos="-1"/>
    </person>
    <vType id="p22" vClass="pedestrian" width="0.7" length="0.5" minGap="0.2" maxSpeed="1.2" guiShape="pedestrian"/>
    <person id="p22" type="p22" depart="139" departPos="0">
        <walk from="NC" to="CS" arrivalPos="-1"/>
    </person>
    <vType id="p23" vClass="pedestrian" width="0.7" length="0.5" minGap="0.2" maxSpeed="1.2" guiShape="pedestrian"/>
    <person id="p23" type="p23" depart="144" departPos="0">
        <walk from="CS" to="NC" arrivalPos="-1"/>
    </person>
    <vType id="p24" vClass="pedestrian" width="0.7" length="0.5" minGap="0.2" maxSpeed="1.2" guiShape="pedestrian"/>
    <person id="p24" type="p24" depart="158" departPos="0">
        <walk from="NC" to="CS" arrivalPos="-1"/>
    </person>
    <vType id="p25" vClass="pedestrian" width="0.7" length="0.5" minGap="0.2" maxSpeed="1.2" guiShape="pedestrian"/>
    <person id="p25" type="p25" depart="162" departPos="0">
        <walk from="CS" to="NC" arrivalPos="-1"/>
    </person>
    <vType id="p26" vClass="pedestrian" width="0.7" length="0.5" minGap="0.2" maxSpeed="1.2" guiShape="pedestrian"/>
    <person id="p26" type="p26" depart="173" departPos="0">
        <walk from="NC" to="CS" arrivalPos="-1"/>
    </person>
    <vType id="p27" vClass="pedestrian" width="0.7" length="0.5" minGap="0.2" maxSpeed="1.2" guiShape="pedestrian"/>
    <person id="p27" type="p27" depart="176" departPos="0">
        <walk from="CS" to="NC" arrivalPos="-1"/>
    </person>
    <vType id="p28" vClass="pedestrian" width="0.7" length="0.5" minGap="0.2" maxSpeed="1.2" guiShape="pedestrian"/>
    <person id="p28" type="p28" depart="179" departPos="0">
        <walk from="NC" to="CS" arrivalPos="-1"/>
    </person>
    <vType id="p29" vClass="pedestrian" width="0.7" length="0.5" minGap="0.2" maxSpeed="1.2" guiShape="pedestrian"/>
    <person id="p29" type="p29" depart="180" departPos="0">
        <walk from="CS" to="NC" arrivalPos="-1"/>
    </person>
    <vType id="p30" vClass="pedestrian" width="0.7" length="0.5" minGap="0.2" maxSpeed="1.2" guiShape="pedestrian"/>
    <person id="p30" type="p30" depart="186" departPos="0">
        <walk from="NC" to="CS" arrivalPos="-1"/>
    </person>
    <vType id="p31" vClass="pedestrian" width="0.7" length="0.5" minGap="0.2" maxSpeed="1.2" guiShape="pedestrian"/>
    <person id="p31" type="p31" depart="187" departPos="0">
        <walk from="CS" to="NC" arrivalPos="-1"/>
    </person>
    <vType id="p32" vClass="pedestrian" width="0.7" length="0.5" minGap="0.2" maxSpeed="1.2" guiShape="pedestrian"/>
    <person id="p32" type="p32" depart="188" departPos="0">
        <walk from="NC" to="CS" arrivalPos="-1"/>
    </person>
    <vType id="p33" vClass="pedestrian" width="0.7" length="0.5" minGap="0.2" maxSpeed="1.2" guiShape="pedestrian"/>
    <person id="p33" type="p33" depart="194" departPos="0">
        <walk from="CS" to="NC" arrivalPos="-1"/>
    </person>
    <vType id="p34" vClass="pedestrian" width="0.7" length="0.5" minGap="0.2" maxSpeed="1.2" guiShape="pedestrian"/>
    <person id="p34" type="p34" depart="200" departPos="0">
        <walk from="NC" to="CS" arrivalPos="-1"/>
    </person>
    <vType id="p35" vClass="pedestrian" width="0.7" length="0.5" minGap="0.2" maxSpeed="1.2" guiShape="pedestrian"/>
    <person id="p35" type="p35" depart="210" departPos="0">
        <walk from="CS" to="NC" arrivalPos="-1"/>
    </person>
    <vType id="p36" vClass="pedestrian" width="0.7" length="0.5" minGap="0.2" maxSpeed="1.2" guiShape="pedestrian"/>
    <person id="p36" type="p36" depart="218" departPos="0">
        <walk from="NC" to="CS" arrivalPos="-1"/>
    </person>
    <vType id="p37" vClass="pedestrian" width="0.7" length="0.5" minGap="0.2" maxSpeed="1.2" guiShape="pedestrian"/>
    <person id="p37" type="p37" depart="220" departPos="0">
        <walk from="CS" to="NC" arrivalPos="-1"/>
    </person>
    <vType id="p38" vClass="pedestrian" width="0.7" length="0.5" minGap="0.2" maxSpeed="1.2" guiShape="pedestrian"/>
    <person id="p38" type="p38" depart="224" departPos="0">
        <walk from="NC" to="CS" arrivalPos="-1"/>
    </person>
    <vType id="p39" vClass="pedestrian" width="0.7" length="0.5" minGap="0.2" maxSpeed="1.2" guiShape="pedestrian"/>
    <person id="p39" type="p39" depart="235" departPos="0">
        <walk from="CS" to="NC" arrivalPos="-1"/>
    </person>
    <vType id="p40" vClass="pedestrian" width="0.7" length="0.5" minGap="0.2" maxSpeed="1.2" guiShape="pedestrian"/>
    <person id="p40" type="p40" depart="236" departPos="0">
        <walk from="NC" to="CS" arrivalPos="-1"/>
    </person>
    <vType id="p41" vClass="pedestrian" width="0.7" length="0.5" minGap="0.2" maxSpeed="1.2" guiShape="pedestrian"/>
    <person id="p41" type="p41" depart="239" departPos="0">
        <walk from="CS" to="NC" arrivalPos="-1"/>
    </person>
    <vType id="p42" vClass="pedestrian" width="0.7" length="0.5" minGap="0.2" maxSpeed="1.2" guiShape="pedestrian"/>
    <person id="p42" type="p42" depart="254" departPos="0">
        <walk from="NC" to="CS" arrivalPos="-1"/>
    </person>
    <vType id="p43" vClass="pedestrian" width="0.7" length="0.5" minGap="0.2" maxSpeed="1.2" guiShape="pedestrian"/>
    <person id="p43" type="p43" depart="255" departPos="0">
        <walk from="CS" to="NC" arrivalPos="-1"/>
    </person>
    <vType id="p44" vClass="pedestrian" width="0.7" length="0.5" minGap="0.2" maxSpeed="1.2" guiShape="pedestrian"/>
    <person id="p44" type="p44" depart="256" departPos="0">
        <walk from="NC" to="CS" arrivalPos="-1"/>
    </person>
    <vType id="p45" vClass="pedestrian" width="0.7" length="0.5" minGap="0.2" maxSpeed="1.2" guiShape="pedestrian"/>
    <person id="p45" type="p45" depart="270" departPos="0">
        <walk from="CS" to="NC" arrivalPos="-1"/>
    </person>
    <vType id="p46" vClass="pedestrian" width="0.7" length="0.5" minGap="0.2" maxSpeed="1.2" guiShape="pedestrian"/>
    <person id="p46" type="p46" depart="272" departPos="0">
        <walk from="NC" to="CS" arrivalPos="-1"/>
    </person>
    <vType id="p47" vClass="pedestrian" width="0.7" length="0.5" minGap="0.2" maxSpeed="1.2" guiShape="pedestrian"/>
    <person id="p47" type="p47" depart="273" departPos="0">
        <walk from="CS" to="NC" arrivalPos="-1"/>
    </person>
    <vType id="p48" vClass="pedestrian" width="0.7" length="0.5" minGap="0.2" maxSpeed="1.2" guiShape="pedestrian"/>
    <person id="p48" type="p48" depart="277" departPos="0">
        <walk from="NC" to="CS" arrivalPos="-1"/>
    </person>
    <vType id="p49" vClass="pedestrian" width="0.7" length="0.5" minGap="0.2" maxSpeed="1.2" guiShape="pedestrian"/>
    <person id="p49" type="p49" depart="286" departPos="0">
        <walk from="CS" to="NC" arrivalPos="-1"/>
    </person>
    <vType id="p50" vClass="pedestrian" width="0.7" length="0.5" minGap="0.2" maxSpeed="1.2" guiShape="pedestrian"/>
    <person id="p50" type="p50" depart="287" departPos="0">
        <walk from="NC" to="CS" arrivalPos="-1"/>
    </person>
    <vType id="p51" vClass="pedestrian" width="0.7" length="0.5" minGap="0.2" maxSpeed="1.2" guiShape="pedestrian"/>
    <person id="p51" type="p51" depart="289" departPos="0">
        <walk from="CS" to="NC" arrivalPos="-1"/>
    </person>
    <vType id="p52" vClass="pedestrian" width="0.7" length="0.5" minGap="0.2" maxSpeed="1.2" guiShape="pedestrian"/>
    <person id="p52" type="p52" depart="295" departPos="0">
        <walk from="NC" to="CS" arrivalPos="-1"/>
    </person>
    <vType id="p53" vClass="pedestrian" width="0.7" length="0.5" minGap="0.2" maxSpeed="1.2" guiShape="pedestrian"/>
    <person id="p53" type="p53" depart="297" departPos="0">
        <walk from="CS" to="NC" arrivalPos="-1"/>
    </person>
    <vType id="p54" vClass="pedestrian" width="0.7" length="0.5" minGap="0.2" maxSpeed="1.2" guiShape="pedestrian"/>
    <person id="p54" type="p54" depart="302" departPos="0">
        <walk from="NC" to="CS" arrivalPos="-1"/>
    </person>
    <vType id="p55" vClass="pedestrian" width="0.7" length="0.5" minGap="0.2" maxSpeed="1.2" guiShape="pedestrian"/>
    <person id="p55" type="p55" depart="311" departPos="0">
        <walk from="CS" to="NC" arrivalPos="-1"/>
    </person>
    <vType id="p56" vClass="pedestrian" width="0.7" length="0.5" minGap="0.2" maxSpeed="1.2" guiShape="pedestrian"/>
    <person id="p56" type="p56" depart="315" departPos="0">
        <walk from="NC" to="CS" arrivalPos="-1"/>
    </person>
    <vType id="p57" vClass="pedestrian" width="0.7" length="0.5" minGap="0.2" maxSpeed="1.2" guiShape="pedestrian"/>
    <person id="p57" type="p57" depart="317" departPos="0">
        <walk from="CS" to="NC" arrivalPos="-1"/>
    </person>
    <vType id="p58" vClass="pedestrian" width="0.7" length="0.5" minGap="0.2" maxSpeed="1.2" guiShape="pedestrian"/>
    <person id="p58" type="p58" depart="319" departPos="0">
        <walk from="NC" to="CS" arrivalPos="-1"/>
    </person>
    <vType id="p59" vClass="pedestrian" width="0.7" length="0.5" minGap="0.2" maxSpeed="1.2" guiShape="pedestrian"/>
    <person id="p59" type="p59" depart="329" departPos="0">
        <walk from="CS" to="NC" arrivalPos="-1"/>
    </person>
    <vType id="p60" vClass="pedestrian" width="0.7" length="0.5" minGap="0.2" maxSpeed="1.2" guiShape="pedestrian"/>
    <person id="p60" type="p60" depart="335" departPos="0">
        <walk from="NC" to="CS" arrivalPos="-1"/>
    </person>
    <vType id="p61" vClass="pedestrian" width="0.7" length="0.5" minGap="0.2" maxSpeed="1.2" guiShape="pedestrian"/>
    <person id="p61" type="p61" depart="341" departPos="0">
        <walk from="CS" to="NC" arrivalPos="-1"/>
    </person>
    <vType id="p62" vClass="pedestrian" width="0.7" length="0.5" minGap="0.2" maxSpeed="1.2" guiShape="pedestrian"/>
    <person id="p62" type="p62" depart="354" departPos="0">
        <walk from="NC" to="CS" arrivalPos="-1"/>
    </person>
    <vType id="p63" vClass="pedestrian" width="0.7" length="0.5" minGap="0.2" maxSpeed="1.2" guiShape="pedestrian"/>
    <person id="p63" type="p63" depart="355" departPos="0">
        <walk from="CS" to="NC" arrivalPos="-1"/>
    </person>
    <vType id="p64" vClass="pedestrian" width="0.7" length="0.5" minGap="0.2" maxSpeed="1.2" guiShape="pedestrian"/>
    <person id="p64" type="p64" depart="370" departPos="0">
        <walk from="NC" to="CS" arrivalPos="-1"/>
    </person>
    <vType id="p65" vClass="pedestrian" width="0.7" length="0.5" minGap="0.2" maxSpeed="1.2" guiShape="pedestrian"/>
    <person id="p65" type="p65" depart="372" departPos="0">
        <walk from="CS" to="NC" arrivalPos="-1"/>
    </person>
    <vType id="p66" vClass="pedestrian" width="0.7" length="0.5" minGap="0.2" maxSpeed="1.2" guiShape="pedestrian"/>
    <person id="p66" type="p66" depart="375" departPos="0">
        <walk from="NC" to="CS" arrivalPos="-1"/>
    </person>
    <vType id="p67" vClass="pedestrian" width="0.7" length="0.5" minGap="0.2" maxSpeed="1.2" guiShape="pedestrian"/>
    <person id="p67" type="p67" depart="382" departPos="0">
        <walk from="CS" to="NC" arrivalPos="-1"/>
    </person>
    <vType id="p68" vClass="pedestrian" width="0.7" length="0.5" minGap="0.2" maxSpeed="1.2" guiShape="pedestrian"/>
    <person id="p68" type="p68" depart="385" departPos="0">
        <walk from="NC" to="CS" arrivalPos="-1"/>
    </person>
    <vType id="p69" vClass="pedestrian" width="0.7" length="0.5" minGap="0.2" maxSpeed="1.2" guiShape="pedestrian"/>
    <person id="p69" type="p69" depart="389" departPos="0">
        <walk from="CS" to="NC" arrivalPos="-1"/>
    </person>
    <vType id="p70" vClass="pedestrian" width="0.7" length="0.5" minGap="0.2" maxSpeed="1.2" guiShape="pedestrian"/>
    <person id="p70" type="p70" depart="396" departPos="0">
        <walk from="NC" to="CS" arrivalPos="-1"/>
    </person>
    <vType id="p71" vClass="pedestrian" width="0.7" length="0.5" minGap="0.2" maxSpeed="1.2" guiShape="pedestrian"/>
    <person id="p71" type="p71" depart="399" departPos="0">
        <walk from="CS" to="NC" arrivalPos="-1"/>
    </person>
    <vType id="p72" vClass="pedestrian" width="0.7" length="0.5" minGap="0.2" maxSpeed="1.2" guiShape="pedestrian"/>
    <person id="p72" type="p72" depart="404" departPos="0">
        <walk from="NC" to="CS" arrivalPos="-1"/>
    </person>
    <vType id="p73" vClass="pedestrian" width="0.7" length="0.5" minGap="0.2" maxSpeed="1.2" guiShape="pedestrian"/>
    <person id="p73" type="p73" depart="413" departPos="0">
        <walk from="CS" to="NC" arrivalPos="-1"/>
    </person>
    <vType id="p74" vClass="pedestrian" width="0.7" length="0.5" minGap="0.2" maxSpeed="1.2" guiShape="pedestrian"/>
    <person id="p74" type="p74" depart="420" departPos="0">
        <walk from="NC" to="CS" arrivalPos="-1"/>
    </person>
    <vType id="p75" vClass="pedestrian" width="0.7" length="0.5" minGap="0.2" maxSpeed="1.2" guiShape="pedestrian"/>
    <person id="p75" type="p75" depart="428" departPos="0">
        <walk from="CS" to="NC" arrivalPos="-1"/>
    </person>
    <vType id="p76" vClass="pedestrian" width="0.7" length="0.5" minGap="0.2" maxSpeed="1.2" guiShape="pedestrian"/>
    <person id="p76" type="p76" depart="432" departPos="0">
        <walk from="NC" to="CS" arrivalPos="-1"/>
    </person>
    <vType id="p77" vClass="pedestrian" width="0.7" length="0.5" minGap="0.2" maxSpeed="1.2" guiShape="pedestrian"/>
    <person id="p77" type="p77" depart="435" departPos="0">
        <walk from="CS" to="NC" arrivalPos="-1"/>
    </person>
    <vType id="p78" vClass="pedestrian" width="0.7" length="0.5" minGap="0.2" maxSpeed="1.2" guiShape="pedestrian"/>
    <person id="p78" type="p78" depart="448" departPos="0">
        <walk from="NC" to="CS" arrivalPos="-1"/>
    </person>
    <vType id="p79" vClass="pedestrian" width="0.7" length="0.5" minGap="0.2" maxSpeed="1.2" guiShape="pedestrian"/>
    <person id="p79" type="p79" depart="451" departPos="0">
        <walk from="CS" to="NC" arrivalPos="-1"/>
    </person>
    <vType id="p80" vClass="pedestrian" width="0.7" length="0.5" minGap="0.2" maxSpeed="1.2" guiShape="pedestrian"/>
    <person id="p80" type="p80" depart="454" departPos="0">
        <walk from="NC" to="CS" arrivalPos="-1"/>
    </person>
    <vType id="p81" vClass="pedestrian" width="0.7" length="0.5" minGap="0.2" maxSpeed="1.2" guiShape="pedestrian"/>
    <person id="p81" type="p81" depart="465" departPos="0">
        <walk from="CS" to="NC" arrivalPos="-1"/>
    </person>
    <vType id="p82" vClass="pedestrian" width="0.7" length="0.5" minGap="0.2" maxSpeed="1.2" guiShape="pedestrian"/>
    <person id="p82" type="p82" depart="466" departPos="0">
        <walk from="NC" to="CS" arrivalPos="-1"/>
    </person>
    <vType id="p83" vClass="pedestrian" width="0.7" length="0.5" minGap="0.2" maxSpeed="1.2" guiShape="pedestrian"/>
    <person id="p83" type="p83" depart="467" departPos="0">
        <walk from="CS" to="NC" arrivalPos="-1"/>
    </person>
    <vType id="p84" vClass="pedestrian" width="0.7" length="0.5" minGap="0.2" maxSpeed="1.2" guiShape="pedestrian"/>
    <person id="p84" type="p84" depart="468" departPos="0">
        <walk from="NC" to="CS" arrivalPos="-1"/>
    </person>
    <vType id="p85" vClass="pedestrian" width="0.7" length="0.5" minGap="0.2" maxSpeed="1.2" guiShape="pedestrian"/>
    <person id="p85" type="p85" depart="476" departPos="0">
        <walk from="CS" to="NC" arrivalPos="-1"/>
    </person>
    <vType id="p86" vClass="pedestrian" width="0.7" length="0.5" minGap="0.2" maxSpeed="1.2" guiShape="pedestrian"/>
    <person id="p86" type="p86" depart="487" departPos="0">
        <walk from="NC" to="CS" arrivalPos="-1"/>
    </person>
    <vType id="p87" vClass="pedestrian" width="0.7" length="0.5" minGap="0.2" maxSpeed="1.2" guiShape="pedestrian"/>
    <person id="p87" type="p87" depart="500" departPos="0">
        <walk from="CS" to="NC" arrivalPos="-1"/>
    </person>
    <vType id="p88" vClass="pedestrian" width="0.7" length="0.5" minGap="0.2" maxSpeed="1.2" guiShape="pedestrian"/>
    <person id="p88" type="p88" depart="505" departPos="0">
        <walk from="NC" to="CS" arrivalPos="-1"/>
    </person>
    <vType id="p89" vClass="pedestrian" width="0.7" length="0.5" minGap="0.2" maxSpeed="1.2" guiShape="pedestrian"/>
    <person id="p89" type="p89" depart="506" departPos="0">
        <walk from="CS" to="NC" arrivalPos="-1"/>
    </person>
    <vType id="p90" vClass="pedestrian" width="0.7" length="0.5" minGap="0.2" maxSpeed="1.2" guiShape="pedestrian"/>
    <person id="p90" type="p90" depart="508" departPos="0">
        <walk from="NC" to="CS" arrivalPos="-1"/>
    </person>
    <vType id="p91" vClass="pedestrian" width="0.7" length="0.5" minGap="0.2" maxSpeed="1.2" guiShape="pedestrian"/>
    <person id="p91" type="p91" depart="511" departPos="0">
        <walk from="CS" to="NC" arrivalPos="-1"/>
    </person>
    <vType id="p92" vClass="pedestrian" width="0.7" length="0.5" minGap="0.2" maxSpeed="1.2" guiShape="pedestrian"/>
    <person id="p92" type="p92" depart="513" departPos="0">
        <walk from="NC" to="CS" arrivalPos="-1"/>
    </person>
    <vType id="p93" vClass="pedestrian" width="0.7" length="0.5" minGap="0.2" maxSpeed="1.2" guiShape="pedestrian"/>
    <person id="p93" type="p93" depart="528" departPos="0">
        <walk from="CS" to="NC" arrivalPos="-1"/>
    </person>
    <vType id="p94" vClass="pedestrian" width="0.7" length="0.5" minGap="0.2" maxSpeed="1.2" guiShape="pedestrian"/>
    <person id="p94" type="p94" depart="530" departPos="0">
        <walk from="NC" to="CS" arrivalPos="-1"/>
    </person>
    <vType id="p95" vClass="pedestrian" width="0.7" length="0.5" minGap="0.2" maxSpeed="1.2" guiShape="pedestrian"/>
    <person id="p95" type="p95" depart="533" departPos="0">
        <walk from="CS" to="NC" arrivalPos="-1"/>
    </person>
    <vType id="p96" vClass="pedestrian" width="0.7" length="0.5" minGap="0.2" maxSpeed="1.2" guiShape="pedestrian"/>
    <person id="p96" type="p96" depart="541" departPos="0">
        <walk from="NC" to="CS" arrivalPos="-1"/>
    </person>
    <vType id="p97" vClass="pedestrian" width="0.7" length="0.5" minGap="0.2" maxSpeed="1.2" guiShape="pedestrian"/>
    <person id="p97" type="p97" depart="549" departPos="0">
        <walk from="CS" to="NC" arrivalPos="-1"/>
    </person>
    <vType id="p98" vClass="pedestrian" width="0.7" length="0.5" minGap="0.2" maxSpeed="1.2" guiShape="pedestrian"/>
    <person id="p98" type="p98" depart="554" departPos="0">
        <walk from="NC" to="CS" arrivalPos="-1"/>
    </person>
    <vType id="p99" vClass="pedestrian" width="0.7" length="0.5" minGap="0.2" maxSpeed="1.2" guiShape="pedestrian"/>
    <person id="p99" type="p99" depart="562" departPos="0">
        <walk from="CS" to="NC" arrivalPos="-1"/>
    </person>
    <vType id="p100" vClass="pedestrian" width="0.7" length="0.5" minGap="0.2" maxSpeed="1.2" guiShape="pedestrian"/>
    <person id="p100" type="p100" depart="568" departPos="0">
        <walk from="NC" to="CS" arrivalPos="-1"/>
    </person>
    <vType id="p101" vClass="pedestrian" width="0.7" length="0.5" minGap="0.2" maxSpeed="1.2" guiShape="pedestrian"/>
    <person id="p101" type="p101" depart="569" departPos="0">
        <walk from="CS" to="NC" arrivalPos="-1"/>
    </person>
    <vType id="p102" vClass="pedestrian" width="0.7" length="0.5" minGap="0.2" maxSpeed="1.2" guiShape="pedestrian"/>
    <person id="p102" type="p102" depart="580" departPos="0">
        <walk from="NC" to="CS" arrivalPos="-1"/>
    </person>
    <vType id="p103" vClass="pedestrian" width="0.7" length="0.5" minGap="0.2" maxSpeed="1.2" guiShape="pedestrian"/>
    <person id="p103" type="p103" depart="581" departPos="0">
        <walk from="CS" to="NC" arrivalPos="-1"/>
    </person>
    <vType id="p104" vClass="pedestrian" width="0.7" length="0.5" minGap="0.2" maxSpeed="1.2" guiShape="pedestrian"/>
    <person id="p104" type="p104" depart="583" departPos="0">
        <walk from="NC" to="CS" arrivalPos="-1"/>
    </person>
    <vType id="p105" vClass="pedestrian" width="0.7" length="0.5" minGap="0.2" maxSpeed="1.2" guiShape="pedestrian"/>
    <person id="p105" type="p105" depart="598" departPos="0">
        <walk from="CS" to="NC" arrivalPos="-1"/>
    </person>
    <vType id="p106" vClass="pedestrian" width="0.7" length="0.5" minGap="0.2" maxSpeed="1.2" guiShape="pedestrian"/>
    <person id="p106" type="p106" depart="601" departPos="0">
        <walk from="NC" to="CS" arrivalPos="-1"/>
    </person>
    <vType id="p107" vClass="pedestrian" width="0.7" length="0.5" minGap="0.2" maxSpeed="1.2" guiShape="pedestrian"/>
    <person id="p107" type="p107" depart="612" departPos="0">
        <walk from="CS" to="NC" arrivalPos="-1"/>
    </person>
    <vType id="p108" vClass="pedestrian" width="0.7" length="0.5" minGap="0.2" maxSpeed="1.2" guiShape="pedestrian"/>
    <person id="p108" type="p108" depart="623" departPos="0">
        <walk from="NC" to="CS" arrivalPos="-1"/>
    </person>
    <vType id="p109" vClass="pedestrian" width="0.7" length="0.5" minGap="0.2" maxSpeed="1.2" guiShape="pedestrian"/>
    <person id="p109" type="p109" depart="624" departPos="0">
        <walk from="CS" to="NC" arrivalPos="-1"/>
    </person>
    <vType id="p110" vClass="pedestrian" width="0.7" length="0.5" minGap="0.2" maxSpeed="1.2" guiShape="pedestrian"/>
    <person id="p110" type="p110" depart="628" departPos="0">
        <walk from="NC" to="CS" arrivalPos="-1"/>
    </person>
    <vType id="p111" vClass="pedestrian" width="0.7" length="0.5" minGap="0.2" maxSpeed="1.2" guiShape="pedestrian"/>
    <person id="p111" type="p111" depart="634" departPos="0">
        <walk from="CS" to="NC" arrivalPos="-1"/>
    </person>
    <vType id="p112" vClass="pedestrian" width="0.7" length="0.5" minGap="0.2" maxSpeed="1.2" guiShape="pedestrian"/>
    <person id="p112" type="p112" depart="637" departPos="0">
        <walk from="NC" to="CS" arrivalPos="-1"/>
    </person>
    <vType id="p113" vClass="pedestrian" width="0.7" length="0.5" minGap="0.2" maxSpeed="1.2" guiShape="pedestrian"/>
    <person id="p113" type="p113" depart="640" departPos="0">
        <walk from="CS" to="NC" arrivalPos="-1"/>
    </person>
    <vType id="p114" vClass="pedestrian" width="0.7" length="0.5" minGap="0.2" maxSpeed="1.2" guiShape="pedestrian"/>
    <person id="p114" type="p114" depart="645" departPos="0">
        <walk from="NC" to="CS" arrivalPos="-1"/>
    </person>
    <vType id="p115" vClass="pedestrian" width="0.7" length="0.5" minGap="0.2" maxSpeed="1.2" guiShape="pedestrian"/>
    <person id="p115" type="p115" depart="654" departPos="0">
        <walk from="CS" to="NC" arrivalPos="-1"/>
    </person>
    <vType id="p116" vClass="pedestrian" width="0.7" length="0.5" minGap="0.2" maxSpeed="1.2" guiShape="pedestrian"/>
    <person id="p116" type="p116" depart="662" departPos="0">
        <walk from="NC" to="CS" arrivalPos="-1"/>
    </person>
    <vType id="p117" vClass="pedestrian" width="0.7" length="0.5" minGap="0.2" maxSpeed="1.2" guiShape="pedestrian"/>
    <person id="p117" type="p117" depart="665" departPos="0">
        <walk from="CS" to="NC" arrivalPos="-1"/>
    </person>
    <vType id="p118" vClass="pedestrian" width="0.7" length="0.5" minGap="0.2" maxSpeed="1.2" guiShape="pedestrian"/>
    <person id="p118" type="p118" depart="672" departPos="0">