<?xml version="1.0" encoding="UTF-8"?>
<routes>
  <!-- passenger vehicle flow -->
  <vType id="slow" length="5" maxSpeed="8.33" accel="2.6" decel="4.5" speedDev="0.5" sigma="0.2" vClass="passenger"/>
  <vType id="medium" length="5" maxSpeed="13.9" accel="2.6" decel="4.5" speedDev="0.5" sigma="0.2" vClass="passenger"/>
  <vType id="fast" length="5" maxSpeed="22.2" accel="2.6" decel="4.5" speedDev="0.5" sigma="0.2" vClass="passenger"/>

  <flow id="WE" type="medium" begin="0" end="1000" probability="0.05" from="WC" to="CE" departLane="2" departSpeed="5" />
  <flow id="EW" type="medium" begin="0" end="1000" probability="0.05" from="EC" to="CW" departLane="2" departSpeed="5" />
  <flow id="NS" type="medium" begin="0" end="1000" probability="0.02" from="NC" to="CS" departLane="2" departSpeed="5" />
  <flow id="SN" type="medium" begin="0" end="1000" probability="0.05" from="SC" to="CN" departLane="2" departSpeed="5" />

  <flow id="SW" type="slow" begin="0" end="1000" probability="0.05" from="SC" to="CW" departLane="1" departSpeed="5" />
  <flow id="WN" type="slow" begin="0" end="1000" probability="0.05" from="WC" to="CN" departLane="1" departSpeed="5" />
  <flow id="NE" type="slow" begin="0" end="1000" probability="0.02" from="NC" to="CE" departLane="1" departSpeed="5" />
  <flow id="ES" type="slow" begin="0" end="1000" probability="0.05" from="EC" to="CS" departLane="1" departSpeed="5" />

  <flow id="SE" type="fast" begin="0" end="1000" probability="0.05" from="SC" to="CE" departLane="3" departSpeed="5" />
  <flow id="WS" type="fast" begin="0" end="1000" probability="0.05" from="WC" to="CS" departLane="3" departSpeed="5" />
  <flow id="NW" type="fast" begin="0" end="1000" probability="0.02" from="NC" to="CW" departLane="3" departSpeed="5" />
  <flow id="EN" type="fast" begin="0" end="1000" probability="0.05" from="EC" to="CN" departLane="3" departSpeed="5" />

  <!-- defing ego car -->
  <vType accel="3.0" decel="6.0" id="CarA" length="5.0" minGap="2.5" maxSpeed="13.9" sigma="0.5" />
  <route id="route01" edges="SC CW"/>
  <vehicle depart="000" id="veh0" route="route01" type="CarA" color="1,1,1" departSpeed="13.9" /> 

  <!-- persons flow -->
  <vType id="p0" vClass="pedestrian" width="0.7" length="0.5" minGap="0.2" maxSpeed="1.2" guiShape="pedestrian"/>
  <person id="p0" type="p0" depart="0" departPos="0">
      <walk from="SC" to="CN" arrivalPos="-1"/>
  </person>
  <vType id="p1" vClass="pedestrian" width="0.7" length="0.5" minGap="0.2" maxSpeed="1.2" guiShape="pedestrian"/>
  <person id="p1" type="p1" depart="1" departPos="0">
      <walk from="CN" to="SC" arrivalPos="-1"/>
  </person>
  <vType id="p2" vClass="pedestrian" width="0.7" length="0.5" minGap="0.2" maxSpeed="1.2" guiShape="pedestrian"/>
  <person id="p2" type="p2" depart="4" departPos="0">
      <walk from="CS" to="NC" arrivalPos="-1"/>
  </person>
  <vType id="p3" vClass="pedestrian" width="0.7" length="0.5" minGap="0.2" maxSpeed="1.2" guiShape="pedestrian"/>
  <person id="p3" type="p3" depart="6" departPos="0">
      <walk from="NC" to="CS" arrivalPos="-1"/>
  </person>
  <vType id="p4" vClass="pedestrian" width="0.7" length="0.5" minGap="0.2" maxSpeed="1.2" guiShape="pedestrian"/>
  <person id="p4" type="p4" depart="7" departPos="0">
      <walk from="EC" to="CW" arrivalPos="-1"/>
  </person>
  <vType id="p5" vClass="pedestrian" width="0.7" length="0.5" minGap="0.2" maxSpeed="1.2" guiShape="pedestrian"/>
  <person id="p5" type="p5" depart="8" departPos="0">
      <walk from="CW" to="EC" arrivalPos="-1"/>
  </person>
  <vType id="p6" vClass="pedestrian" width="0.7" length="0.5" minGap="0.2" maxSpeed="1.2" guiShape="pedestrian"/>
  <person id="p6" type="p6" depart="10" departPos="0">
      <walk from="WC" to="CE" arrivalPos="-1"/>
  </person>
  <vType id="p7" vClass="pedestrian" width="0.7" length="0.5" minGap="0.2" maxSpeed="1.2" guiShape="pedestrian"/>
  <person id="p7" type="p7" depart="11" departPos="0">
      <walk from="SC" to="CN" arrivalPos="-1"/>
  </person>
  <vType id="p8" vClass="pedestrian" width="0.7" length="0.5" minGap="0.2" maxSpeed="1.2" guiShape="pedestrian"/>
  <person id="p8" type="p8" depart="12" departPos="0">
      <walk from="CN" to="SC" arrivalPos="-1"/>
  </person>
  <vType id="p9" vClass="pedestrian" width="0.7" length="0.5" minGap="0.2" maxSpeed="1.2" guiShape="pedestrian"/>
  <person id="p9" type="p9" depart="14" departPos="0">
      <walk from="CS" to="NC" arrivalPos="-1"/>
  </person>
  <vType id="p10" vClass="pedestrian" width="0.7" length="0.5" minGap="0.2" maxSpeed="1.2" guiShape="pedestrian"/>
  <person id="p10" type="p10" depart="15" departPos="0">
      <walk from="NC" to="CS" arrivalPos="-1"/>
  </person>
  <vType id="p11" vClass="pedestrian" width="0.7" length="0.5" minGap="0.2" maxSpeed="1.2" guiShape="pedestrian"/>
  <person id="p11" type="p11" depart="16" departPos="0">
      <walk from="EC" to="CW" arrivalPos="-1"/>
  </person>
  <vType id="p12" vClass="pedestrian" width="0.7" length="0.5" minGap="0.2" maxSpeed="1.2" guiShape="pedestrian"/>
  <person id="p12" type="p12" depart="20" departPos="0">
      <walk from="CW" to="EC" arrivalPos="-1"/>
  </person>
  <vType id="p13" vClass="pedestrian" width="0.7" length="0.5" minGap="0.2" maxSpeed="1.2" guiShape="pedestrian"/>
  <person id="p13" type="p13" depart="21" departPos="0">
      <walk from="WC" to="CE" arrivalPos="-1"/>
  </person>
  <vType id="p14" vClass="pedestrian" width="0.7" length="0.5" minGap="0.2" maxSpeed="1.2" guiShape="pedestrian"/>
  <person id="p14" type="p14" depart="26" departPos="0">
      <walk from="SC" to="CN" arrivalPos="-1"/>
  </person>
  <vType id="p15" vClass="pedestrian" width="0.7" length="0.5" minGap="0.2" maxSpeed="1.2" guiShape="pedestrian"/>
  <person id="p15" type="p15" depart="27" departPos="0">
      <walk from="CN" to="SC" arrivalPos="-1"/>
  </person>
  <vType id="p16" vClass="pedestrian" width="0.7" length="0.5" minGap="0.2" maxSpeed="1.2" guiShape="pedestrian"/>
  <person id="p16" type="p16" depart="29" departPos="0">
      <walk from="CS" to="NC" arrivalPos="-1"/>
  </person>
  <vType id="p17" vClass="pedestrian" width="0.7" length="0.5" minGap="0.2" maxSpeed="1.2" guiShape="pedestrian"/>
  <person id="p17" type="p17" depart="30" departPos="0">
      <walk from="NC" to="CS" arrivalPos="-1"/>
  </person>
  <vType id="p18" vClass="pedestrian" width="0.7" length="0.5" minGap="0.2" maxSpeed="1.2" guiShape="pedestrian"/>
  <person id="p18" type="p18" depart="32" departPos="0">
      <walk from="EC" to="CW" arrivalPos="-1"/>
  </person>
  <vType id="p19" vClass="pedestrian" width="0.7" length="0.5" minGap="0.2" maxSpeed="1.2" guiShape="pedestrian"/>
  <person id="p19" type="p19" depart="33" departPos="0">
      <walk from="CW" to="EC" arrivalPos="-1"/>
  </person>
  <vType id="p20" vClass="pedestrian" width="0.7" length="0.5" minGap="0.2" maxSpeed="1.2" guiShape="pedestrian"/>
  <person id="p20" type="p20" depart="35" departPos="0">
      <walk from="WC" to="CE" arrivalPos="-1"/>
  </person>
  <vType id="p21" vClass="pedestrian" width="0.7" length="0.5" minGap="0.2" maxSpeed="1.2" guiShape="pedestrian"/>
  <person id="p21" type="p21" depart="36" departPos="0">
      <walk from="SC" to="CN" arrivalPos="-1"/>
  </person>
  <vType id="p22" vClass="pedestrian" width="0.7" length="0.5" minGap="0.2" maxSpeed="1.2" guiShape="pedestrian"/>
  <person id="p22" type="p22" depart="38" departPos="0">
      <walk from="CN" to="SC" arrivalPos="-1"/>
  </person>
  <vType id="p23" vClass="pedestrian" width="0.7" length="0.5" minGap="0.2" maxSpeed="1.2" guiShape="pedestrian"/>
  <person id="p23" type="p23" depart="39" departPos="0">
      <walk from="CS" to="NC" arrivalPos="-1"/>
  </person>
  <vType id="p24" vClass="pedestrian" width="0.7" length="0.5" minGap="0.2" maxSpeed="1.2" guiShape="pedestrian"/>
  <person id="p24" type="p24" depart="41" departPos="0">
      <walk from="NC" to="CS" arrivalPos="-1"/>
  </person>
  <vType id="p25" vClass="pedestrian" width="0.7" length="0.5" minGap="0.2" maxSpeed="1.2" guiShape="pedestrian"/>
  <person id="p25" type="p25" depart="42" departPos="0">
      <walk from="EC" to="CW" arrivalPos="-1"/>
  </person>
  <vType id="p26" vClass="pedestrian" width="0.7" length="0.5" minGap="0.2" maxSpeed="1.2" guiShape="pedestrian"/>
  <person id="p26" type="p26" depart="43" departPos="0">
      <walk from="CW" to="EC" arrivalPos="-1"/>
  </person>
  <vType id="p27" vClass="pedestrian" width="0.7" length="0.5" minGap="0.2" maxSpeed="1.2" guiShape="pedestrian"/>
  <person id="p27" type="p27" depart="44" departPos="0">
      <walk from="WC" to="CE" arrivalPos="-1"/>
  </person>
  <vType id="p28" vClass="pedestrian" width="0.7" length="0.5" minGap="0.2" maxSpeed="1.2" guiShape="pedestrian"/>
  <person id="p28" type="p28" depart="46" departPos="0">
      <walk from="SC" to="CN" arrivalPos="-1"/>
  </person>
  <vType id="p29" vClass="pedestrian" width="0.7" length="0.5" minGap="0.2" maxSpeed="1.2" guiShape="pedestrian"/>
  <person id="p29" type="p29" depart="47" departPos="0">
      <walk from="CN" to="SC" arrivalPos="-1"/>
  </person>
  <vType id="p30" vClass="pedestrian" width="0.7" length="0.5" minGap="0.2" maxSpeed="1.2" guiShape="pedestrian"/>
  <person id="p30" type="p30" depart="48" departPos="0">
      <walk from="CS" to="NC" arrivalPos="-1"/>
  </person>
  <vType id="p31" vClass="pedestrian" width="0.7" length="0.5" minGap="0.2" maxSpeed="1.2" guiShape="pedestrian"/>
  <person id="p31" type="p31" depart="51" departPos="0">
      <walk from="NC" to="CS" arrivalPos="-1"/>
  </person>
  <vType id="p32" vClass="pedestrian" width="0.7" length="0.5" minGap="0.2" maxSpeed="1.2" guiShape="pedestrian"/>
  <person id="p32" type="p32" depart="52" departPos="0">
      <walk from="EC" to="CW" arrivalPos="-1"/>
  </person>
  <vType id="p33" vClass="pedestrian" width="0.7" length="0.5" minGap="0.2" maxSpeed="1.2" guiShape="pedestrian"/>
  <person id="p33" type="p33" depart="55" departPos="0">
      <walk from="CW" to="EC" arrivalPos="-1"/>
  </person>
  <vType id="p34" vClass="pedestrian" width="0.7" length="0.5" minGap="0.2" maxSpeed="1.2" guiShape="pedestrian"/>
  <person id="p34" type="p34" depart="56" departPos="0">
      <walk from="WC" to="CE" arrivalPos="-1"/>
  </person>
  <vType id="p35" vClass="pedestrian" width="0.7" length="0.5" minGap="0.2" maxSpeed="1.2" guiShape="pedestrian"/>
  <person id="p35" type="p35" depart="58" departPos="0">
      <walk from="SC" to="CN" arrivalPos="-1"/>
  </person>
  <vType id="p36" vClass="pedestrian" width="0.7" length="0.5" minGap="0.2" maxSpeed="1.2" guiShape="pedestrian"/>
  <person id="p36" type="p36" depart="59" departPos="0">
      <walk from="CN" to="SC" arrivalPos="-1"/>
  </person>
  <vType id="p37" vClass="pedestrian" width="0.7" length="0.5" minGap="0.2" maxSpeed="1.2" guiShape="pedestrian"/>
  <person id="p37" type="p37" depart="61" departPos="0">
      <walk from="CS" to="NC" arrivalPos="-1"/>
  </person>
  <vType id="p38" vClass="pedestrian" width="0.7" length="0.5" minGap="0.2" maxSpeed="1.2" guiShape="pedestrian"/>
  <person id="p38" type="p38" depart="62" departPos="0">
      <walk from="NC" to="CS" arrivalPos="-1"/>
  </person>
  <vType id="p39" vClass="pedestrian" width="0.7" length="0.5" minGap="0.2" maxSpeed="1.2" guiShape="pedestrian"/>
  <person id="p39" type="p39" depart="65" departPos="0">
      <walk from="EC" to="CW" arrivalPos="-1"/>
  </person>
  <vType id="p40" vClass="pedestrian" width="0.7" length="0.5" minGap="0.2" maxSpeed="1.2" guiShape="pedestrian"/>
  <person id="p40" type="p40" depart="66" departPos="0">
      <walk from="CW" to="EC" arrivalPos="-1"/>
  </person>
  <vType id="p41" vClass="pedestrian" width="0.7" length="0.5" minGap="0.2" maxSpeed="1.2" guiShape="pedestrian"/>
  <person id="p41" type="p41" depart="69" departPos="0">
      <walk from="WC" to="CE" arrivalPos="-1"/>
  </person>
  <vType id="p42" vClass="pedestrian" width="0.7" length="0.5" minGap="0.2" maxSpeed="1.2" guiShape="pedestrian"/>
  <person id="p42" type="p42" depart="70" departPos="0">
      <walk from="SC" to="CN" arrivalPos="-1"/>
  </person>
  <vType id="p43" vClass="pedestrian" width="0.7" length="0.5" minGap="0.2" maxSpeed="1.2" guiShape="pedestrian"/>
  <person id="p43" type="p43" depart="71" departPos="0">
      <walk from="CN" to="SC" arrivalPos="-1"/>
  </person>
  <vType id="p44" vClass="pedestrian" width="0.7" length="0.5" minGap="0.2" maxSpeed="1.2" guiShape="pedestrian"/>
  <person id="p44" type="p44" depart="73" departPos="0">
      <walk from="CS" to="NC" arrivalPos="-1"/>
  </person>
  <vType id="p45" vClass="pedestrian" width="0.7" length="0.5" minGap="0.2" maxSpeed="1.2" guiShape="pedestrian"/>
  <person id="p45" type="p45" depart="75" departPos="0">
      <walk from="NC" to="CS" arrivalPos="-1"/>
  </person>
  <vType id="p46" vClass="pedestrian" width="0.7" length="0.5" minGap="0.2" maxSpeed="1.2" guiShape="pedestrian"/>
  <person id="p46" type="p46" depart="76" departPos="0">
      <walk from="EC" to="CW" arrivalPos="-1"/>
  </person>
  <vType id="p47" vClass="pedestrian" width="0.7" length="0.5" minGap="0.2" maxSpeed="1.2" guiShape="pedestrian"/>
  <person id="p47" type="p47" depart="77" departPos="0">
      <walk from="CW" to="EC" arrivalPos="-1"/>
  </person>
  <vType id="p48" vClass="pedestrian" width="0.7" length="0.5" minGap="0.2" maxSpeed="1.2" guiShape="pedestrian"/>
  <person id="p48" type="p48" depart="78" departPos="0">
      <walk from="WC" to="CE" arrivalPos="-1"/>
  </person>
  <vType id="p49" vClass="pedestrian" width="0.7" length="0.5" minGap="0.2" maxSpeed="1.2" guiShape="pedestrian"/>
  <person id="p49" type="p49" depart="80" departPos="0">
      <walk from="SC" to="CN" arrivalPos="-1"/>
  </person>
  <vType id="p50" vClass="pedestrian" width="0.7" length="0.5" minGap="0.2" maxSpeed="1.2" guiShape="pedestrian"/>
  <person id="p50" type="p50" depart="82" departPos="0">
      <walk from="CN" to="SC" arrivalPos="-1"/>
  </person>
  <vType id="p51" vClass="pedestrian" width="0.7" length="0.5" minGap="0.2" maxSpeed="1.2" guiShape="pedestrian"/>
  <person id="p51" type="p51" depart="83" departPos="0">
      <walk from="CS" to="NC" arrivalPos="-1"/>
  </person>
  <vType id="p52" vClass="pedestrian" width="0.7" length="0.5" minGap="0.2" maxSpeed="1.2" guiShape="pedestrian"/>
  <person id="p52" type="p52" depart="84" departPos="0">
      <walk from="NC" to="CS" arrivalPos="-1"/>
  </person>
  <vType id="p53" vClass="pedestrian" width="0.7" length="0.5" minGap="0.2" maxSpeed="1.2" guiShape="pedestrian"/>
  <person id="p53" type="p53" depart="86" departPos="0">
      <walk from="EC" to="CW" arrivalPos="-1"/>
  </person>
  <vType id="p54" vClass="pedestrian" width="0.7" length="0.5" minGap="0.2" maxSpeed="1.2" guiShape="pedestrian"/>
  <person id="p54" type="p54" depart="87" departPos="0">
      <walk from="CW" to="EC" arrivalPos="-1"/>
  </person>
  <vType id="p55" vClass="pedestrian" width="0.7" length="0.5" minGap="0.2" maxSpeed="1.2" guiShape="pedestrian"/>
  <person id="p55" type="p55" depart="88" departPos="0">
      <walk from="WC" to="CE" arrivalPos="-1"/>
  </person>
  <vType id="p56" vClass="pedestrian" width="0.7" length="0.5" minGap="0.2" maxSpeed="1.2" guiShape="pedestrian"/>
  <person id="p56" type="p56" depart="90" departPos="0">
      <walk from="SC" to="CN" arrivalPos="-1"/>
  </person>
  <vType id="p57" vClass="pedestrian" width="0.7" length="0.5" minGap="0.2" maxSpeed="1.2" guiShape="pedestrian"/>
  <person id="p57" type="p57" depart="94" departPos="0">
      <walk from="CN" to="SC" arrivalPos="-1"/>
  </person>
  <vType id="p58" vClass="pedestrian" width="0.7" length="0.5" minGap="0.2" maxSpeed="1.2" guiShape="pedestrian"/>
  <person id="p58" type="p58" depart="96" departPos="0">
      <walk from="CS" to="NC" arrivalPos="-1"/>
  </person>
  <vType id="p59" vClass="pedestrian" width="0.7" length="0.5" minGap="0.2" maxSpeed="1.2" guiShape="pedestrian"/>
  <person id="p59" type="p59" depart="97" departPos="0">
      <walk from="NC" to="CS" arrivalPos="-1"/>
  </person>
  <vType id="p60" vClass="pedestrian" width="0.7" length="0.5" minGap="0.2" maxSpeed="1.2" guiShape="pedestrian"/>
  <person id="p60" type="p60" depart="98" departPos="0">
      <walk from="EC" to="CW" arrivalPos="-1"/>
  </person>
  <vType id="p61" vClass="pedestrian" width="0.7" length="0.5" minGap="0.2" maxSpeed="1.2" guiShape="pedestrian"/>
  <person id="p61" type="p61" depart="103" departPos="0">
      <walk from="CW" to="EC" arrivalPos="-1"/>
  </person>
  <vType id="p62" vClass="pedestrian" width="0.7" length="0.5" minGap="0.2" maxSpeed="1.2" guiShape="pedestrian"/>
  <person id="p62" type="p62" depart="104" departPos="0">
      <walk from="WC" to="CE" arrivalPos="-1"/>
  </person>
  <vType id="p63" vClass="pedestrian" width="0.7" length="0.5" minGap="0.2" maxSpeed="1.2" guiShape="pedestrian"/>
  <person id="p63" type="p63" depart="106" departPos="0">
      <walk from="SC" to="CN" arrivalPos="-1"/>
  </person>
  <vType id="p64" vClass="pedestrian" width="0.7" length="0.5" minGap="0.2" maxSpeed="1.2" guiShape="pedestrian"/>
  <person id="p64" type="p64" depart="108" departPos="0">
      <walk from="CN" to="SC" arrivalPos="-1"/>
  </person>
  <vType id="p65" vClass="pedestrian" width="0.7" length="0.5" minGap="0.2" maxSpeed="1.2" guiShape="pedestrian"/>
  <person id="p65" type="p65" depart="111" departPos="0">
      <walk from="CS" to="NC" arrivalPos="-1"/>
  </person>
  <vType id="p66" vClass="pedestrian" width="0.7" length="0.5" minGap="0.2" maxSpeed="1.2" guiShape="pedestrian"/>
  <person id="p66" type="p66" depart="112" departPos="0">
      <walk from="NC" to="CS" arrivalPos="-1"/>
  </person>
  <vType id="p67" vClass="pedestrian" width="0.7" length="0.5" minGap="0.2" maxSpeed="1.2" guiShape="pedestrian"/>
  <person id="p67" type="p67" depart="113" departPos="0">
      <walk from="EC" to="CW" arrivalPos="-1"/>
  </person>
  <vType id="p68" vClass="pedestrian" width="0.7" length="0.5" minGap="0.2" maxSpeed="1.2" guiShape="pedestrian"/>
  <person id="p68" type="p68" depart="114" departPos="0">
      <walk from="CW" to="EC" arrivalPos="-1"/>
  </person>
  <vType id="p69" vClass="pedestrian" width="0.7" length="0.5" minGap="0.2" maxSpeed="1.2" guiShape="pedestrian"/>
  <person id="p69" type="p69" depart="115" departPos="0">
      <walk from="WC" to="CE" arrivalPos="-1"/>
  </person>
  <vType id="p70" vClass="pedestrian" width="0.7" length="0.5" minGap="0.2" maxSpeed="1.2" guiShape="pedestrian"/>
  <person id="p70" type="p70" depart="116" departPos="0">
      <walk from="SC" to="CN" arrivalPos="-1"/>
  </person>
  <vType id="p71" vClass="pedestrian" width="0.7" length="0.5" minGap="0.2" maxSpeed="1.2" guiShape="pedestrian"/>
  <person id="p71" type="p71" depart="117" departPos="0">
      <walk from="CN" to="SC" arrivalPos="-1"/>
  </person>
  <vType id="p72" vClass="pedestrian" width="0.7" length="0.5" minGap="0.2" maxSpeed="1.2" guiShape="pedestrian"/>
  <person id="p72" type="p72" depart="119" departPos="0">
      <walk from="CS" to="NC" arrivalPos="-1"/>
  </person>
  <vType id="p73" vClass="pedestrian" width="0.7" length="0.5" minGap="0.2" maxSpeed="1.2" guiShape="pedestrian"/>
  <person id="p73" type="p73" depart="121" departPos="0">
      <walk from="NC" to="CS" arrivalPos="-1"/>
  </person>
  <vType id="p74" vClass="pedestrian" width="0.7" length="0.5" minGap="0.2" maxSpeed="1.2" guiShape="pedestrian"/>
  <person id="p74" type="p74" depart="122" departPos="0">
      <walk from="EC" to="CW" arrivalPos="-1"/>
  </person>
  <vType id="p75" vClass="pedestrian" width="0.7" length="0.5" minGap="0.2" maxSpeed="1.2" guiShape="pedestrian"/>
  <person id="p75" type="p75" depart="123" departPos="0">
      <walk from="CW" to="EC" arrivalPos="-1"/>
  </person>
  <vType id="p76" vClass="pedestrian" width="0.7" length="0.5" minGap="0.2" maxSpeed="1.2" guiShape="pedestrian"/>
  <person id="p76" type="p76" depart="124" departPos="0">
      <walk from="WC" to="CE" arrivalPos="-1"/>
  </person>
  <vType id="p77" vClass="pedestrian" width="0.7" length="0.5" minGap="0.2" maxSpeed="1.2" guiShape="pedestrian"/>
  <person id="p77" type="p77" depart="125" departPos="0">
      <walk from="SC" to="CN" arrivalPos="-1"/>
  </person>
  <vType id="p78" vClass="pedestrian" width="0.7" length="0.5" minGap="0.2" maxSpeed="1.2" guiShape="pedestrian"/>
  <person id="p78" type="p78" depart="126" departPos="0">
      <walk from="CN" to="SC" arrivalPos="-1"/>
  </person>
  <vType id="p79" vClass="pedestrian" width="0.7" length="0.5" minGap="0.2" maxSpeed="1.2" guiShape="pedestrian"/>
  <person id="p79" type="p79" depart="128" departPos="0">
      <walk from="CS" to="NC" arrivalPos="-1"/>
  </person>
  <vType id="p80" vClass="pedestrian" width="0.7" length="0.5" minGap="0.2" maxSpeed="1.2" guiShape="pedestrian"/>
  <person id="p80" type="p80" depart="130" departPos="0">
      <walk from="NC" to="CS" arrivalPos="-1"/>
  </person>
  <vType id="p81" vClass="pedestrian" width="0.7" length="0.5" minGap="0.2" maxSpeed="1.2" guiShape="pedestrian"/>
  <person id="p81" type="p81" depart="131" departPos="0">
      <walk from="EC" to="CW" arrivalPos="-1"/>
  </person>
  <vType id="p82" vClass="pedestrian" width="0.7" length="0.5" minGap="0.2" maxSpeed="1.2" guiShape="pedestrian"/>
  <person id="p82" type="p82" depart="133" departPos="0">
      <walk from="CW" to="EC" arrivalPos="-1"/>
  </person>
  <vType id="p83" vClass="pedestrian" width="0.7" length="0.5" minGap="0.2" maxSpeed="1.2" guiShape="pedestrian"/>
  <person id="p83" type="p83" depart="136" departPos="0">
      <walk from="WC" to="CE" arrivalPos="-1"/>
  </person>
  <vType id="p84" vClass="pedestrian" width="0.7" length="0.5" minGap="0.2" maxSpeed="1.2" guiShape="pedestrian"/>
  <person id="p84" type="p84" depart="138" departPos="0">
      <walk from="SC" to="CN" arrivalPos="-1"/>
  </person>
  <vType id="p85" vClass="pedestrian" width="0.7" length="0.5" minGap="0.2" maxSpeed="1.2" guiShape="pedestrian"/>
  <person id="p85" type="p85" depart="139" departPos="0">
      <walk from="CN" to="SC" arrivalPos="-1"/>
  </person>
  <vType id="p86" vClass="pedestrian" width="0.7" length="0.5" minGap="0.2" maxSpeed="1.2" guiShape="pedestrian"/>
  <person id="p86" type="p86" depart="140" departPos="0">
      <walk from="CS" to="NC" arrivalPos="-1"/>
  </person>
  <vType id="p87" vClass="pedestrian" width="0.7" length="0.5" minGap="0.2" maxSpeed="1.2" guiShape="pedestrian"/>
  <person id="p87" type="p87" depart="141" departPos="0">
      <walk from="NC" to="CS" arrivalPos="-1"/>
  </person>
  <vType id="p88" vClass="pedestrian" width="0.7" length="0.5" minGap="0.2" maxSpeed="1.2" guiShape="pedestrian"/>
  <person id="p88" type="p88" depart="142" departPos="0">
      <walk from="EC" to="CW" arrivalPos="-1"/>
  </person>
  <vType id="p89" vClass="pedestrian" width="0.7" length="0.5" minGap="0.2" maxSpeed="1.2" guiShape="pedestrian"/>
  <person id="p89" type="p89" depart="143" departPos="0">
      <walk from="CW" to="EC" arrivalPos="-1"/>
  </person>
  <vType id="p90" vClass="pedestrian" width="0.7" length="0.5" minGap="0.2" maxSpeed="1.2" guiShape="pedestrian"/>
  <person id="p90" type="p90" depart="145" departPos="0">
      <walk from="WC" to="CE" arrivalPos="-1"/>
  </person>
  <vType id="p91" vClass="pedestrian" width="0.7" length="0.5" minGap="0.2" maxSpeed="1.2" guiShape="pedestrian"/>
  <person id="p91" type="p91" depart="146" departPos="0">
      <walk from="SC" to="CN" arrivalPos="-1"/>
  </person>
  <vType id="p92" vClass="pedestrian" width="0.7" length="0.5" minGap="0.2" maxSpeed="1.2" guiShape="pedestrian"/>
  <person id="p92" type="p92" depart="149" departPos="0">
      <walk from="CN" to="SC" arrivalPos="-1"/>
  </person>
  <vType id="p93" vClass="pedestrian" width="0.7" length="0.5" minGap="0.2" maxSpeed="1.2" guiShape="pedestrian"/>
  <person id="p93" type="p93" depart="150" departPos="0">
      <walk from="CS" to="NC" arrivalPos="-1"/>
  </person>
  <vType id="p94" vClass="pedestrian" width="0.7" length="0.5" minGap="0.2" maxSpeed="1.2" guiShape="pedestrian"/>
  <person id="p94" type="p94" depart="152" departPos="0">
      <walk from="NC" to="CS" arrivalPos="-1"/>
  </person>
  <vType id="p95" vClass="pedestrian" width="0.7" length="0.5" minGap="0.2" maxSpeed="1.2" guiShape="pedestrian"/>
  <person id="p95" type="p95" depart="153" departPos="0">
      <walk from="EC" to="CW" arrivalPos="-1"/>
  </person>
  <vType id="p96" vClass="pedestrian" width="0.7" length="0.5" minGap="0.2" maxSpeed="1.2" guiShape="pedestrian"/>
  <person id="p96" type="p96" depart="155" departPos="0">
      <walk from="CW" to="EC" arrivalPos="-1"/>
  </person>
  <vType id="p97" vClass="pedestrian" width="0.7" length="0.5" minGap="0.2" maxSpeed="1.2" guiShape="pedestrian"/>
  <person id="p97" type="p97" depart="156" departPos="0">
      <walk from="WC" to="CE" arrivalPos="-1"/>
  </person>
  <vType id="p98" vClass="pedestrian" width="0.7" length="0.5" minGap="0.2" maxSpeed="1.2" guiShape="pedestrian"/>
  <person id="p98" type="p98" depart="157" departPos="0">
      <walk from="SC" to="CN" arrivalPos="-1"/>
  </person>
  <vType id="p99" vClass="pedestrian" width="0.7" length="0.5" minGap="0.2" maxSpeed="1.2" guiShape="pedestrian"/>
  <person id="p99" type="p99" depart="158" departPos="0">
      <walk from="CN" to="SC" arrivalPos="-1"/>
  </person>
  <vType id="p100" vClass="pedestrian" width="0.7" length="0.5" minGap="0.2" maxSpeed="1.2" guiShape="pedestrian"/>
  <person id="p100" type="p100" depart="159" departPos="0">
      <walk from="CS" to="NC" arrivalPos="-1"/>
  </person>
  <vType id="p101" vClass="pedestrian" width="0.7" length="0.5" minGap="0.2" maxSpeed="1.2" guiShape="pedestrian"/>
  <person id="p101" type="p101" depart="161" departPos="0">
      <walk from="NC" to="CS" arrivalPos="-1"/>
  </person>
  <vType id="p102" vClass="pedestrian" width="0.7" length="0.5" minGap="0.2" maxSpeed="1.2" guiShape="pedestrian"/>
  <person id="p102" type="p102" depart="162" departPos="0">
      <walk from="EC" to="CW" arrivalPos="-1"/>
  </person>
  <vType id="p103" vClass="pedestrian" width="0.7" length="0.5" minGap="0.2" maxSpeed="1.2" guiShape="pedestrian"/>
  <person id="p103" type="p103" depart="163" departPos="0">
      <walk from="CW" to="EC" arrivalPos="-1"/>
  </person>
  <vType id="p104" vClass="pedestrian" width="0.7" length="0.5" minGap="0.2" maxSpeed="1.2" guiShape="pedestrian"/>
  <person id="p104" type="p104" depart="164" departPos="0">
      <walk from="WC" to="CE" arrivalPos="-1"/>
  </person>
  <vType id="p105" vClass="pedestrian" width="0.7" length="0.5" minGap="0.2" maxSpeed="1.2" guiShape="pedestrian"/>
  <person id="p105" type="p105" depart="165" departPos="0">
      <walk from="SC" to="CN" arrivalPos="-1"/>
  </person>
  <vType id="p106" vClass="pedestrian" width="0.7" length="0.5" minGap="0.2" maxSpeed="1.2" guiShape="pedestrian"/>
  <person id="p106" type="p106" depart="166" departPos="0">
      <walk from="CN" to="SC" arrivalPos="-1"/>
  </person>
  <vType id="p107" vClass="pedestrian" width="0.7" length="0.5" minGap="0.2" maxSpeed="1.2" guiShape="pedestrian"/>
  <person id="p107" type="p107" depart="169" departPos="0">
      <walk from="CS" to="NC" arrivalPos="-1"/>
  </person>
  <vType id="p108" vClass="pedestrian" width="0.7" length="0.5" minGap="0.2" maxSpeed="1.2" guiShape="pedestrian"/>
  <person id="p108" type="p108" depart="171" departPos="0">
      <walk from="NC" to="CS" arrivalPos="-1"/>
  </person>
  <vType id="p109" vClass="pedestrian" width="0.7" length="0.5" minGap="0.2" maxSpeed="1.2" guiShape="pedestrian"/>
  <person id="p109" type="p109" depart="172" departPos="0">
      <walk from="EC" to="CW" arrivalPos="-1"/>
  </person>
  <vType id="p110" vClass="pedestrian" width="0.7" length="0.5" minGap="0.2" maxSpeed="1.2" guiShape="pedestrian"/>
  <person id="p110" type="p110" depart="173" departPos="0">
      <walk from="CW" to="EC" arrivalPos="-1"/>
  </person>
  <vType id="p111" vClass="pedestrian" width="0.7" length="0.5" minGap="0.2" maxSpeed="1.2" guiShape="pedestrian"/>
  <person id="p111" type="p111" depart="175" departPos="0">
      <walk from="WC" to="CE" arrivalPos="-1"/>
  </person>
  <vType id="p112" vClass="pedestrian" width="0.7" length="0.5" minGap="0.2" maxSpeed="1.2" guiShape="pedestrian"/>
  <person id="p112" type="p112" depart="176" departPos="0">
      <walk from="SC" to="CN" arrivalPos="-1"/>
  </person>
  <vType id="p113" vClass="pedestrian" width="0.7" length="0.5" minGap="0.2" maxSpeed="1.2" guiShape="pedestrian"/>
  <person id="p113" type="p113" depart="179" departPos="0">
      <walk from="CN" to="SC" arrivalPos="-1"/>
  </person>
  <vType id="p114" vClass="pedestrian" width="0.7" length="0.5" minGap="0.2" maxSpeed="1.2" guiShape="pedestrian"/>
  <person id="p114" type="p114" depart="180" departPos="0">
      <walk from="CS" to="NC" arrivalPos="-1"/>
  </person>
  <vType id="p115" vClass="pedestrian" width="0.7" length="0.5" minGap="0.2" maxSpeed="1.2" guiShape="pedestrian"/>
  <person id="p115" type="p115" depart="181" departPos="0">
      <walk from="NC" to="CS" arrivalPos="-1"/>
  </person>
  <vType id="p116" vClass="pedestrian" width="0.7" length="0.5" minGap="0.2" maxSpeed="1.2" guiShape="pedestrian"/>
  <person id="p116" type="p116" depart="182" departPos="0">
      <walk from="EC" to="CW" arrivalPos="-1"/>
  </person>
  <vType id="p117" vClass="pedestrian" width="0.7" length="0.5" minGap="0.2" maxSpeed="1.2" guiShape="pedestrian"/>
  <person id="p117" type="p117" depart="183" departPos="0">
      <walk from="CW" to="EC" arrivalPos="-1"/>
  </person>
  <vType id="p118" vClass="pedestrian" width="0.7" length="0.5" minGap="0.2" maxSpeed="1.2" guiShape="pedestrian"/>
  <person id="p118" type="p118" depart="184" departPos="0">
      <walk from="WC" to="CE" arrivalPos="-1"/>
  </person>
  <vType id="p119" vClass="pedestrian" width="0.7" length="0.5" minGap="0.2" maxSpeed="1.2" guiShape="pedestrian"/>