<?xml version="1.0" encoding="UTF-8"?>

<!-- generated on Tue Mar 12 15:32:46 2019 by Eclipse SUMO netconvert Version 1.1.0
<configuration xmlns:xsi="http://www.w3.org/2001/XMLSchema-instance" xsi:noNamespaceSchemaLocation="http://sumo.dlr.de/xsd/netconvertConfiguration.xsd">

    <input>
        <sumo-net-file value="scenario.net.xml"/>
    </input>

    <output>
        <output-file value="correct.net.xml"/>
    </output>

    <processing>
        <geometry.max-grade.fix value="false"/>
        <offset.disable-normalization value="true"/>
        <lefthand value="true"/>
    </processing>

    <junctions>
        <no-turnarounds value="true"/>
        <junctions.corner-detail value="5"/>
        <junctions.limit-turn-speed value="5.5"/>
        <rectangular-lane-cut value="false"/>
    </junctions>

    <pedestrian>
        <walkingareas value="false"/>
    </pedestrian>

</configuration>
-->

<net version="1.1" junctionCornerDetail="5" lefthand="true" limitTurnSpeed="5.50" xmlns:xsi="http://www.w3.org/2001/XMLSchema-instance" xsi:noNamespaceSchemaLocation="http://sumo.dlr.de/xsd/net_file.xsd">

    <location netOffset="0.00,0.00" convBoundary="0.00,-50.00,100.00,50.00" origBoundary="-10000000000.00,-10000000000.00,10000000000.00,10000000000.00" projParameter="!"/>

    <edge id=":C_0" function="internal">
        <lane id=":C_0_0" index="0" disallow="pedestrian" speed="7.01" length="6.43" shape="42.00,-14.60 41.59,-11.71 40.35,-9.65 39.40,-9.08"/>
    </edge>
    <edge id=":C_1" function="internal">
        <lane id=":C_1_0" index="0" disallow="pedestrian" speed="13.89" length="29.20" shape="42.00,-14.60 42.00,14.60"/>
        <lane id=":C_1_1" index="1" disallow="pedestrian" speed="13.89" length="29.20" shape="45.20,-14.60 45.20,14.60"/>
        <lane id=":C_1_2" index="2" disallow="pedestrian" speed="13.89" length="29.20" shape="48.40,-14.60 48.40,14.60"/>
    </edge>
    <edge id=":C_4" function="internal">
        <lane id=":C_4_0" index="0" disallow="pedestrian" speed="10.69" length="5.60" shape="48.40,-14.60 49.19,-9.06"/>
    </edge>
    <edge id=":C_20" function="internal">
        <lane id=":C_20_0" index="0" disallow="pedestrian" speed="7.01" length="4.21" shape="39.40,-9.08 38.29,-8.41 35.40,-8.00"/>
    </edge>
    <edge id=":C_21" function="internal">
        <lane id=":C_21_0" index="0" disallow="pedestrian" speed="10.69" length="20.53" shape="49.19,-9.06 49.41,-7.51 52.45,-2.45 57.51,0.59 64.60,1.60"/>
    </edge>
    <edge id=":C_5" function="internal">
        <lane id=":C_5_0" index="0" disallow="pedestrian" speed="7.01" length="6.43" shape="64.60,-8.00 61.71,-8.41 59.65,-9.65 59.08,-10.60"/>
    </edge>
    <edge id=":C_6" function="internal">
        <lane id=":C_6_0" index="0" disallow="pedestrian" speed="13.89" length="29.20" shape="64.60,-8.00 35.40,-8.00"/>
        <lane id=":C_6_1" index="1" disallow="pedestrian" speed="13.89" length="29.20" shape="64.60,-4.80 35.40,-4.80"/>
        <lane id=":C_6_2" index="2" disallow="pedestrian" speed="13.89" length="29.20" shape="64.60,-1.60 35.40,-1.60"/>
    </edge>
    <edge id=":C_9" function="internal">
        <lane id=":C_9_0" index="0" disallow="pedestrian" speed="10.69" length="5.60" shape="64.60,-1.60 59.06,-0.81"/>
    </edge>
    <edge id=":C_22" function="internal">
        <lane id=":C_22_0" index="0" disallow="pedestrian" speed="7.01" length="4.21" shape="59.08,-10.60 58.41,-11.71 58.00,-14.60"/>
    </edge>
    <edge id=":C_23" function="internal">
        <lane id=":C_23_0" index="0" disallow="pedestrian" speed="10.69" length="20.53" shape="59.06,-0.81 57.51,-0.59 52.45,2.45 49.41,7.51 48.40,14.60"/>
    </edge>
    <edge id=":C_10" function="internal">
        <lane id=":C_10_0" index="0" disallow="pedestrian" speed="7.01" length="6.43" shape="58.00,14.60 58.41,11.71 59.65,9.65 60.60,9.08"/>
    </edge>
    <edge id=":C_11" function="internal">
        <lane id=":C_11_0" index="0" disallow="pedestrian" speed="13.89" length="29.20" shape="58.00,14.60 58.00,-14.60"/>
        <lane id=":C_11_1" index="1" disallow="pedestrian" speed="13.89" length="29.20" shape="54.80,14.60 54.80,-14.60"/>
        <lane id=":C_11_2" index="2" disallow="pedestrian" speed="13.89" length="29.20" shape="51.60,14.60 51.60,-14.60"/>
    </edge>
    <edge id=":C_14" function="internal">
        <lane id=":C_14_0" index="0" disallow="pedestrian" speed="10.69" length="5.60" shape="51.60,14.60 50.81,9.06"/>
    </edge>
    <edge id=":C_24" function="internal">
        <lane id=":C_24_0" index="0" disallow="pedestrian" speed="7.01" length="4.21" shape="60.60,9.08 61.71,8.41 64.60,8.00"/>
    </edge>
    <edge id=":C_25" function="internal">
        <lane id=":C_25_0" index="0" disallow="pedestrian" speed="10.69" length="20.53" shape="50.81,9.06 50.59,7.51 47.55,2.45 42.49,-0.59 35.40,-1.60"/>
    </edge>
    <edge id=":C_15" function="internal">
        <lane id=":C_15_0" index="0" disallow="pedestrian" speed="7.01" length="6.43" shape="35.40,8.00 38.29,8.41 40.35,9.65 40.92,10.60"/>
    </edge>
    <edge id=":C_16" function="internal">
        <lane id=":C_16_0" index="0" disallow="pedestrian" speed="13.89" length="29.20" shape="35.40,8.00 64.60,8.00"/>
        <lane id=":C_16_1" index="1" disallow="pedestrian" speed="13.89" length="29.20" shape="35.40,4.80 64.60,4.80"/>
        <lane id=":C_16_2" index="2" disallow="pedestrian" speed="13.89" length="29.20" shape="35.40,1.60 64.60,1.60"/>
    </edge>
    <edge id=":C_19" function="internal">
        <lane id=":C_19_0" index="0" disallow="pedestrian" speed="10.69" length="5.60" shape="35.40,1.60 40.94,0.81"/>
    </edge>
    <edge id=":C_26" function="internal">
        <lane id=":C_26_0" index="0" disallow="pedestrian" speed="7.01" length="4.21" shape="40.92,10.60 41.59,11.71 42.00,14.60"/>
    </edge>
    <edge id=":C_27" function="internal">
        <lane id=":C_27_0" index="0" disallow="pedestrian" speed="10.69" length="20.53" shape="40.94,0.81 42.49,0.59 47.55,-2.45 50.59,-7.51 51.60,-14.60"/>
    </edge>
    <edge id=":C_c0" function="crossing" crossingEdges="CS SC">
        <lane id=":C_c0_0" index="0" allow="pedestrian" speed="1.00" length="19.20" width="4.00" shape="59.60,-12.60 40.40,-12.60"/>
    </edge>
    <edge id=":C_c1" function="crossing" crossingEdges="CE EC">
        <lane id=":C_c1_0" index="0" allow="pedestrian" speed="1.00" length="19.20" width="4.00" shape="62.60,9.60 62.60,-9.60"/>
    </edge>
    <edge id=":C_c2" function="crossing" crossingEdges="CN NC">
        <lane id=":C_c2_0" index="0" allow="pedestrian" speed="1.00" length="19.20" width="4.00" shape="40.40,12.60 59.60,12.60"/>
    </edge>
    <edge id=":C_c3" function="crossing" crossingEdges="CW WC">
        <lane id=":C_c3_0" index="0" allow="pedestrian" speed="1.00" length="19.20" width="4.00" shape="37.40,-9.60 37.40,9.60"/>
    </edge>
    <edge id=":C_w0" function="walkingarea">
        <lane id=":C_w0_0" index="0" allow="pedestrian" speed="1.00" length="4.19" width="4.00" shape="35.40,-9.60 35.40,-11.60 38.40,-14.60 40.40,-14.60 40.26,-13.07 39.84,-11.82 39.15,-10.85 38.18,-10.16 36.93,-9.74"/>
    </edge>
    <edge id=":C_w1" function="walkingarea">
        <lane id=":C_w1_0" index="0" allow="pedestrian" speed="1.00" length="4.19" width="4.00" shape="59.60,-14.60 61.60,-14.60 64.60,-11.60 64.60,-9.60 63.07,-9.74 61.82,-10.16 60.85,-10.85 60.16,-11.82 59.74,-13.07"/>
    </edge>
    <edge id=":C_w2" function="walkingarea">
        <lane id=":C_w2_0" index="0" allow="pedestrian" speed="1.00" length="4.19" width="4.00" shape="64.60,9.60 64.60,11.60 61.60,14.60 59.60,14.60 59.74,13.07 60.16,11.82 60.85,10.85 61.82,10.16 63.07,9.74"/>
    </edge>
    <edge id=":C_w3" function="walkingarea">
        <lane id=":C_w3_0" index="0" allow="pedestrian" speed="1.00" length="4.19" width="4.00" shape="40.40,14.60 38.40,14.60 35.40,11.60 35.40,9.60 36.93,9.74 38.18,10.16 39.15,10.85 39.84,11.82 40.26,13.07"/>
    </edge>
    <edge id=":E_w0" function="walkingarea">
        <lane id=":E_w0_0" index="0" allow="pedestrian" speed="1.00" length="21.20" width="2.00" shape="100.00,-9.60 100.00,-11.60 100.00,11.60 100.00,9.60"/>
    </edge>
    <edge id=":N_w0" function="walkingarea">
        <lane id=":N_w0_0" index="0" allow="pedestrian" speed="1.00" length="21.20" width="2.00" shape="59.60,50.00 61.60,50.00 38.40,50.00 40.40,50.00"/>
    </edge>
    <edge id=":S_w0" function="walkingarea">
        <lane id=":S_w0_0" index="0" allow="pedestrian" speed="1.00" length="21.20" width="2.00" shape="40.40,-50.00 38.40,-50.00 61.60,-50.00 59.60,-50.00"/>
    </edge>
    <edge id=":W_w0" function="walkingarea">
        <lane id=":W_w0_0" index="0" allow="pedestrian" speed="1.00" length="21.20" width="2.00" shape="0.00,9.60 0.00,11.60 0.00,-11.60 0.00,-9.60"/>
    </edge>

    <edge id="CE" from="C" to="E" priority="2">
        <lane id="CE_0" index="0" allow="pedestrian" speed="13.89" length="35.40" width="2.00" shape="64.60,10.60 100.00,10.60"/>
        <lane id="CE_1" index="1" disallow="pedestrian" speed="13.89" length="35.40" shape="64.60,8.00 100.00,8.00"/>
        <lane id="CE_2" index="2" disallow="pedestrian" speed="13.89" length="35.40" shape="64.60,4.80 100.00,4.80"/>
        <lane id="CE_3" index="3" disallow="pedestrian" speed="13.89" length="35.40" shape="64.60,1.60 100.00,1.60"/>
    </edge>
    <edge id="CN" from="C" to="N" priority="2">
        <lane id="CN_0" index="0" allow="pedestrian" speed="13.89" length="35.40" width="2.00" shape="39.40,14.60 39.40,50.00"/>
        <lane id="CN_1" index="1" disallow="pedestrian" speed="13.89" length="35.40" shape="42.00,14.60 42.00,50.00"/>
        <lane id="CN_2" index="2" disallow="pedestrian" speed="13.89" length="35.40" shape="45.20,14.60 45.20,50.00"/>
        <lane id="CN_3" index="3" disallow="pedestrian" speed="13.89" length="35.40" shape="48.40,14.60 48.40,50.00"/>
    </edge>
    <edge id="CS" from="C" to="S" priority="2">
        <lane id="CS_0" index="0" allow="pedestrian" speed="13.89" length="35.40" width="2.00" shape="60.60,-14.60 60.60,-50.00"/>
        <lane id="CS_1" index="1" disallow="pedestrian" speed="13.89" length="35.40" shape="58.00,-14.60 58.00,-50.00"/>
        <lane id="CS_2" index="2" disallow="pedestrian" speed="13.89" length="35.40" shape="54.80,-14.60 54.80,-50.00"/>
        <lane id="CS_3" index="3" disallow="pedestrian" speed="13.89" length="35.40" shape="51.60,-14.60 51.60,-50.00"/>
    </edge>
    <edge id="CW" from="C" to="W" priority="2">
        <lane id="CW_0" index="0" allow="pedestrian" speed="13.89" length="35.40" width="2.00" shape="35.40,-10.60 0.00,-10.60"/>
        <lane id="CW_1" index="1" disallow="pedestrian" speed="13.89" length="35.40" shape="35.40,-8.00 0.00,-8.00"/>
        <lane id="CW_2" index="2" disallow="pedestrian" speed="13.89" length="35.40" shape="35.40,-4.80 0.00,-4.80"/>
        <lane id="CW_3" index="3" disallow="pedestrian" speed="13.89" length="35.40" shape="35.40,-1.60 0.00,-1.60"/>
    </edge>
    <edge id="EC" from="E" to="C" priority="2">
        <lane id="EC_0" index="0" allow="pedestrian" speed="13.89" length="35.40" width="2.00" shape="100.00,-10.60 64.60,-10.60"/>
        <lane id="EC_1" index="1" disallow="pedestrian" speed="13.89" length="35.40" shape="100.00,-8.00 64.60,-8.00"/>
        <lane id="EC_2" index="2" disallow="pedestrian" speed="13.89" length="35.40" shape="100.00,-4.80 64.60,-4.80"/>
        <lane id="EC_3" index="3" disallow="pedestrian" speed="13.89" length="35.40" shape="100.00,-1.60 64.60,-1.60"/>
    </edge>
    <edge id="NC" from="N" to="C" priority="2">
        <lane id="NC_0" index="0" allow="pedestrian" speed="13.89" length="35.40" width="2.00" shape="60.60,50.00 60.60,14.60"/>
        <lane id="NC_1" index="1" disallow="pedestrian" speed="13.89" length="35.40" shape="58.00,50.00 58.00,14.60"/>
        <lane id="NC_2" index="2" disallow="pedestrian" speed="13.89" length="35.40" shape="54.80,50.00 54.80,14.60"/>
        <lane id="NC_3" index="3" disallow="pedestrian" speed="13.89" length="35.40" shape="51.60,50.00 51.60,14.60"/>
    </edge>
    <edge id="SC" from="S" to="C" priority="2">
        <lane id="SC_0" index="0" allow="pedestrian" speed="13.89" length="35.40" width="2.00" shape="39.40,-50.00 39.40,-14.60"/>
        <lane id="SC_1" index="1" disallow="pedestrian" speed="13.89" length="35.40" shape="42.00,-50.00 42.00,-14.60"/>
        <lane id="SC_2" index="2" disallow="pedestrian" speed="13.89" length="35.40" shape="45.20,-50.00 45.20,-14.60"/>
        <lane id="SC_3" index="3" disallow="pedestrian" speed="13.89" length="35.40" shape="48.40,-50.00 48.40,-14.60"/>
    </edge>
    <edge id="WC" from="W" to="C" priority="2">
        <lane id="WC_0" index="0" allow="pedestrian" speed="13.89" length="35.40" width="2.00" shape="0.00,10.60 35.40,10.60"/>
        <lane id="WC_1" index="1" disallow="pedestrian" speed="13.89" length="35.40" shape="0.00,8.00 35.40,8.00"/>
        <lane id="WC_2" index="2" disallow="pedestrian" speed="13.89" length="35.40" shape="0.00,4.80 35.40,4.80"/>
        <lane id="WC_3" index="3" disallow="pedestrian" speed="13.89" length="35.40" shape="0.00,1.60 35.40,1.60"/>
    </edge>

    <tlLogic id="C" type="static" programID="0" offset="0">
        <phase duration="37" state="rrrrrgGGGgrrrrrgGGGgGrGr"/>
        <phase duration="5"  state="rrrrrgGGGgrrrrrgGGGgrrrr"/>
        <phase duration="3"  state="rrrrryyyyyrrrrryyyyyrrrr"/>
        <phase duration="37" state="gGGGgrrrrrgGGGgrrrrrrGrG"/>
        <phase duration="5"  state="gGGGgrrrrrgGGGgrrrrrrrrr"/>
        <phase duration="3"  state="yyyyyrrrrryyyyyrrrrrrrrr"/>
    </tlLogic>

    <junction id="C" type="traffic_light" x="50.00" y="0.00" incLanes="SC_0 SC_1 SC_2 SC_3 EC_0 EC_1 EC_2 EC_3 NC_0 NC_1 NC_2 NC_3 WC_0 WC_1 WC_2 WC_3 :C_w1_0 :C_w2_0 :C_w3_0 :C_w0_0" intLanes=":C_20_0 :C_1_0 :C_1_1 :C_1_2 :C_21_0 :C_22_0 :C_6_0 :C_6_1 :C_6_2 :C_23_0 :C_24_0 :C_11_0 :C_11_1 :C_11_2 :C_25_0 :C_26_0 :C_16_0 :C_16_1 :C_16_2 :C_27_0 :C_c0_0 :C_c1_0 :C_c2_0 :C_c3_0" shape="38.40,-14.60 61.60,-14.60 61.93,-12.93 62.35,-12.35 62.93,-11.93 63.68,-11.68 64.60,-11.60 64.60,11.60 62.93,11.93 62.35,12.35 61.93,12.93 61.68,13.68 61.60,14.60 38.40,14.60 38.07,12.93 37.65,12.35 37.07,11.93 36.32,11.68 35.40,11.60 35.40,-11.60 37.07,-11.93 37.65,-12.35 38.07,-12.93 38.32,-13.68" radius="3.00" rightOfWay="edgePriority">
        <request index="0"  response="100100000000000111000000" foes="100100000000000111000000" cont="1"/>
        <request index="1"  response="010111111000001000000000" foes="010111111100001111000000" cont="0"/>
        <request index="2"  response="010111111000001000000000" foes="010111111100001111000000" cont="0"/>
        <request index="3"  response="010111111000001000000000" foes="010111111100001111000000" cont="0"/>
        <request index="4"  response="001111110011100111000000" foes="001111110011101111000000" cont="1"/>
        <request index="5"  response="001100000011100000000000" foes="001100000011100000000000" cont="1"/>
        <request index="6"  response="101000000100000000011111" foes="101010000111100000011111" cont="0"/>
        <request index="7"  response="101000000100000000011111" foes="101010000111100000011111" cont="0"/>
        <request index="8"  response="101000000100000000011111" foes="101010000111100000011111" cont="0"/>
        <request index="9"  response="011001110011100000011110" foes="011001110111100000011110" cont="1"/>
        <request index="10" response="011001110000000000000000" foes="011001110000000000000000" cont="1"/>
        <request index="11" response="010110000000001111100000" foes="010111110000001111110000" cont="0"/>
        <request index="12" response="010110000000001111100000" foes="010111110000001111110000" cont="0"/>
        <request index="13" response="010110000000001111100000" foes="010111110000001111110000" cont="0"/>
        <request index="14" response="110001110000001111001110" foes="110011110000001111001110" cont="1"/>
        <request index="15" response="110000000000000000001110" foes="110000000000000000001110" cont="1"/>
        <request index="16" response="101000000111110000010000" foes="101000000111111000011110" cont="0"/>
        <request index="17" response="101000000111110000010000" foes="101000000111111000011110" cont="0"/>
        <request index="18" response="101000000111110000010000" foes="101000000111111000011110" cont="0"/>
        <request index="19" response="100100000111100111001110" foes="100100000111100111011110" cont="1"/>
        <request index="20" response="000000000000000000000000" foes="000010000011100000111111" cont="0"/>
        <request index="21" response="000000000000000000000000" foes="000001110000011111110000" cont="0"/>
        <request index="22" response="000000000000000000000000" foes="000000001111111000001110" cont="0"/>
        <request index="23" response="000000000000000000000000" foes="000011111100000111000001" cont="0"/>
    </junction>
    <junction id="E" type="dead_end" x="100.00" y="0.00" incLanes="CE_0 CE_1 CE_2 CE_3" intLanes="" shape="100.00,-0.00 100.00,11.60 100.00,-0.00"/>
    <junction id="N" type="dead_end" x="50.00" y="50.00" incLanes="CN_0 CN_1 CN_2 CN_3" intLanes="" shape="50.00,50.00 38.40,50.00 50.00,50.00"/>
    <junction id="S" type="dead_end" x="50.00" y="-50.00" incLanes="CS_0 CS_1 CS_2 CS_3" intLanes="" shape="50.00,-50.00 61.60,-50.00 50.00,-50.00"/>
    <junction id="W" type="dead_end" x="0.00" y="0.00" incLanes="CW_0 CW_1 CW_2 CW_3" intLanes="" shape="0.00,-0.00 0.00,-11.60 0.00,-0.00"/>

    <junction id=":C_20_0" type="internal" x="39.40" y="-9.08" incLanes=":C_0_0" intLanes=":C_6_0 :C_6_1 :C_6_2 :C_14_0 :C_c0_0 :C_c3_0"/>
    <junction id=":C_21_0" type="internal" x="49.19" y="-9.06" incLanes=":C_4_0 NC_1 NC_2 NC_3 WC_3" intLanes=":C_6_0 :C_6_1 :C_6_2 :C_9_0 :C_10_0 :C_11_0 :C_11_1 :C_11_2 :C_16_0 :C_16_1 :C_16_2 :C_19_0 :C_c0_0 :C_c1_0"/>
    <junction id=":C_22_0" type="internal" x="59.08" y="-10.60" incLanes=":C_5_0" intLanes=":C_11_0 :C_11_1 :C_11_2 :C_19_0 :C_c0_0 :C_c1_0"/>
    <junction id=":C_23_0" type="internal" x="59.06" y="-0.81" incLanes=":C_9_0 SC_3 WC_1 WC_2 WC_3" intLanes=":C_1_0 :C_1_1 :C_1_2 :C_4_0 :C_11_0 :C_11_1 :C_11_2 :C_14_0 :C_15_0 :C_16_0 :C_16_1 :C_16_2 :C_c1_0 :C_c2_0"/>
    <junction id=":C_24_0" type="internal" x="60.60" y="9.08" incLanes=":C_10_0" intLanes=":C_4_0 :C_16_0 :C_16_1 :C_16_2 :C_c1_0 :C_c2_0"/>
    <junction id=":C_25_0" type="internal" x="50.81" y="9.06" incLanes=":C_14_0 EC_3 SC_1 SC_2 SC_3" intLanes=":C_0_0 :C_1_0 :C_1_1 :C_1_2 :C_6_0 :C_6_1 :C_6_2 :C_9_0 :C_16_0 :C_16_1 :C_16_2 :C_19_0 :C_c2_0 :C_c3_0"/>
    <junction id=":C_26_0" type="internal" x="40.92" y="10.60" incLanes=":C_15_0" intLanes=":C_1_0 :C_1_1 :C_1_2 :C_9_0 :C_c2_0 :C_c3_0"/>
    <junction id=":C_27_0" type="internal" x="40.94" y="0.81" incLanes=":C_19_0 EC_1 EC_2 EC_3 NC_3" intLanes=":C_1_0 :C_1_1 :C_1_2 :C_4_0 :C_5_0 :C_6_0 :C_6_1 :C_6_2 :C_11_0 :C_11_1 :C_11_2 :C_14_0 :C_c0_0 :C_c3_0"/>

    <connection from="EC" to="CS" fromLane="1" toLane="1" via=":C_5_0" tl="C" linkIndex="5" dir="l" state="o"/>
    <connection from="EC" to="CW" fromLane="1" toLane="1" via=":C_6_0" tl="C" linkIndex="6" dir="s" state="o"/>
    <connection from="EC" to="CW" fromLane="2" toLane="2" via=":C_6_1" tl="C" linkIndex="7" dir="s" state="o"/>
    <connection from="EC" to="CW" fromLane="3" toLane="3" via=":C_6_2" tl="C" linkIndex="8" dir="s" state="o"/>
    <connection from="EC" to="CN" fromLane="3" toLane="3" via=":C_9_0" tl="C" linkIndex="9" dir="r" state="o"/>
    <connection from="NC" to="CE" fromLane="1" toLane="1" via=":C_10_0" tl="C" linkIndex="10" dir="l" state="o"/>
    <connection from="NC" to="CS" fromLane="1" toLane="1" via=":C_11_0" tl="C" linkIndex="11" dir="s" state="o"/>
    <connection from="NC" to="CS" fromLane="2" toLane="2" via=":C_11_1" tl="C" linkIndex="12" dir="s" state="o"/>
    <connection from="NC" to="CS" fromLane="3" toLane="3" via=":C_11_2" tl="C" linkIndex="13" dir="s" state="o"/>
    <connection from="NC" to="CW" fromLane="3" toLane="3" via=":C_14_0" tl="C" linkIndex="14" dir="r" state="o"/>
    <connection from="SC" to="CW" fromLane="1" toLane="1" via=":C_0_0" tl="C" linkIndex="0" dir="l" state="o"/>
    <connection from="SC" to="CN" fromLane="1" toLane="1" via=":C_1_0" tl="C" linkIndex="1" dir="s" state="o"/>
    <connection from="SC" to="CN" fromLane="2" toLane="2" via=":C_1_1" tl="C" linkIndex="2" dir="s" state="o"/>
    <connection from="SC" to="CN" fromLane="3" toLane="3" via=":C_1_2" tl="C" linkIndex="3" dir="s" state="o"/>
    <connection from="SC" to="CE" fromLane="3" toLane="3" via=":C_4_0" tl="C" linkIndex="4" dir="r" state="o"/>
    <connection from="WC" to="CN" fromLane="1" toLane="1" via=":C_15_0" tl="C" linkIndex="15" dir="l" state="o"/>
    <connection from="WC" to="CE" fromLane="1" toLane="1" via=":C_16_0" tl="C" linkIndex="16" dir="s" state="o"/>
    <connection from="WC" to="CE" fromLane="2" toLane="2" via=":C_16_1" tl="C" linkIndex="17" dir="s" state="o"/>
    <connection from="WC" to="CE" fromLane="3" toLane="3" via=":C_16_2" tl="C" linkIndex="18" dir="s" state="o"/>
    <connection from="WC" to="CS" fromLane="3" toLane="3" via=":C_19_0" tl="C" linkIndex="19" dir="r" state="o"/>

    <connection from=":C_0" to="CW" fromLane="0" toLane="1" via=":C_20_0" dir="l" state="m"/>
    <connection from=":C_20" to="CW" fromLane="0" toLane="1" dir="l" state="M"/>
    <connection from=":C_1" to="CN" fromLane="0" toLane="1" dir="s" state="M"/>
    <connection from=":C_1" to="CN" fromLane="1" toLane="2" dir="s" state="M"/>
    <connection from=":C_1" to="CN" fromLane="2" toLane="3" dir="s" state="M"/>
    <connection from=":C_4" to="CE" fromLane="0" toLane="3" via=":C_21_0" dir="r" state="m"/>
    <connection from=":C_21" to="CE" fromLane="0" toLane="3" dir="r" state="M"/>
    <connection from=":C_5" to="CS" fromLane="0" toLane="1" via=":C_22_0" dir="l" state="m"/>
    <connection from=":C_22" to="CS" fromLane="0" toLane="1" dir="l" state="M"/>
    <connection from=":C_6" to="CW" fromLane="0" toLane="1" dir="s" state="M"/>
    <connection from=":C_6" to="CW" fromLane="1" toLane="2" dir="s" state="M"/>
    <connection from=":C_6" to="CW" fromLane="2" toLane="3" dir="s" state="M"/>
    <connection from=":C_9" to="CN" fromLane="0" toLane="3" via=":C_23_0" dir="r" state="m"/>
    <connection from=":C_23" to="CN" fromLane="0" toLane="3" dir="r" state="M"/>
    <connection from=":C_10" to="CE" fromLane="0" toLane="1" via=":C_24_0" dir="l" state="m"/>
    <connection from=":C_24" to="CE" fromLane="0" toLane="1" dir="l" state="M"/>
    <connection from=":C_11" to="CS" fromLane="0" toLane="1" dir="s" state="M"/>
    <connection from=":C_11" to="CS" fromLane="1" toLane="2" dir="s" state="M"/>
    <connection from=":C_11" to="CS" fromLane="2" toLane="3" dir="s" state="M"/>
    <connection from=":C_14" to="CW" fromLane="0" toLane="3" via=":C_25_0" dir="r" state="m"/>
    <connection from=":C_25" to="CW" fromLane="0" toLane="3" dir="r" state="M"/>
    <connection from=":C_15" to="CN" fromLane="0" toLane="1" via=":C_26_0" dir="l" state="m"/>
    <connection from=":C_26" to="CN" fromLane="0" toLane="1" dir="l" state="M"/>
    <connection from=":C_16" to="CE" fromLane="0" toLane="1" dir="s" state="M"/>
    <connection from=":C_16" to="CE" fromLane="1" toLane="2" dir="s" state="M"/>
    <connection from=":C_16" to="CE" fromLane="2" toLane="3" dir="s" state="M"/>
    <connection from=":C_19" to="CS" fromLane="0" toLane="3" via=":C_27_0" dir="r" state="m"/>
    <connection from=":C_27" to="CS" fromLane="0" toLane="3" dir="r" state="M"/>

    <connection from=":C_c0" to=":C_w0" fromLane="0" toLane="0" dir="s" state="M"/>
    <connection from=":C_c1" to=":C_w1" fromLane="0" toLane="0" dir="s" state="M"/>
    <connection from=":C_c2" to=":C_w2" fromLane="0" toLane="0" dir="s" state="M"/>
    <connection from=":C_c3" to=":C_w3" fromLane="0" toLane="0" dir="s" state="M"/>
    <connection from=":C_w0" to=":C_c3" fromLane="0" toLane="0" tl="C" linkIndex="23" dir="s" state="M"/>
    <connection from=":C_w0" to="CW" fromLane="0" toLane="0" dir="s" state="M"/>
    <connection from="SC" to=":C_w0" fromLane="0" toLane="0" dir="s" state="M"/>
    <connection from=":C_w1" to=":C_c0" fromLane="0" toLane="0" tl="C" linkIndex="20" dir="s" state="M"/>
    <connection from=":C_w1" to="CS" fromLane="0" toLane="0" dir="s" state="M"/>
    <connection from="EC" to=":C_w1" fromLane="0" toLane="0" dir="s" state="M"/>
    <connection from=":C_w2" to=":C_c1" fromLane="0" toLane="0" tl="C" linkIndex="21" dir="s" state="M"/>
    <connection from=":C_w2" to="CE" fromLane="0" toLane="0" dir="s" state="M"/>
    <connection from="NC" to=":C_w2" fromLane="0" toLane="0" dir="s" state="M"/>
    <connection from=":C_w3" to=":C_c2" fromLane="0" toLane="0" tl="C" linkIndex="22" dir="s" state="M"/>
    <connection from=":C_w3" to="CN" fromLane="0" toLane="0" dir="s" state="M"/>
    <connection from="WC" to=":C_w3" fromLane="0" toLane="0" dir="s" state="M"/>
    <connection from=":E_w0" to="EC" fromLane="0" toLane="0" dir="s" state="M"/>
    <connection from="CE" to=":E_w0" fromLane="0" toLane="0" dir="s" state="M"/>
    <connection from=":N_w0" to="NC" fromLane="0" toLane="0" dir="s" state="M"/>
    <connection from="CN" to=":N_w0" fromLane="0" toLane="0" dir="s" state="M"/>
    <connection from=":S_w0" to="SC" fromLane="0" toLane="0" dir="s" state="M"/>
    <connection from="CS" to=":S_w0" fromLane="0" toLane="0" dir="s" state="M"/>
    <connection from=":W_w0" to="WC" fromLane="0" toLane="0" dir="s" state="M"/>
    <connection from="CW" to=":W_w0" fromLane="0" toLane="0" dir="s" state="M"/>
</net>
